download/pglib-opf-master/api/pglib_opf_case2868_rte__api.m
%%%%%%%%%%%%%%%%%%%%%%%%%%%%%%%%%%%%%%%%%%%%%%%%%%%%%%%%%%%%%%%%%%%%%%%%%%%
%%%%                                                                  %%%%%
%%%%    IEEE PES Power Grid Library - Optimal Power Flow - v19.05     %%%%%
%%%%          (https://github.com/power-grid-lib/pglib-opf)           %%%%%
%%%%             Benchmark Group - Active Power Increase              %%%%%
%%%%                         08 - May - 2019                          %%%%%
%%%%                                                                  %%%%%
%%%%%%%%%%%%%%%%%%%%%%%%%%%%%%%%%%%%%%%%%%%%%%%%%%%%%%%%%%%%%%%%%%%%%%%%%%%
function mpc = pglib_opf_case2868_rte__api
mpc.version = '2';
mpc.baseMVA = 100.0;

%% bus data
%	bus_i	type	Pd	Qd	Gs	Bs	area	Vm	Va	baseKV	zone	Vmax	Vmin
mpc.bus = [
	1	 1	 -18.50	 0.00	 0.0	 0.0	 1	    1.00000	    0.00000	 63.0	 1	    1.06349	    0.93651;
	2	 1	 14.17	 0.60	 0.0	 0.0	 1	    0.98889	    0.00000	 225.0	 1	    1.08889	    0.88889;
	3	 1	 0.0	 0.0	 0.0	 0.0	 1	    1.05131	    0.00000	 380.0	 1	    1.10263	    1.00000;
	4	 1	 0.0	 0.0	 0.0	 0.0	 1	    1.00000	    0.00000	 63.0	 1	    1.07937	    0.92063;
	5	 1	 0.20	 -0.20	 0.0	 0.0	 1	    0.94444	    0.00000	 45.0	 1	    1.00000	    0.88889;
	6	 1	 5.60	 -19.00	 0.0	 0.0	 1	    0.94444	    0.00000	 45.0	 1	    1.00000	    0.88889;
	7	 1	 268.46	 7.60	 0.0	 0.0	 1	    1.04222	    0.00000	 225.0	 1	    1.08444	    1.00000;
	8	 1	 82.36	 7.60	 0.0	 0.0	 1	    1.01587	    0.00000	 63.0	 1	    1.06349	    0.96825;
	10	 1	 0.0	 0.0	 0.0	 0.0	 1	    1.00334	    0.00000	 150.0	 1	    1.10667	    0.90000;
	11	 1	 58.95	 0.90	 0.0	 0.0	 1	    1.01111	    0.00000	 225.0	 1	    1.08889	    0.93333;
	2571	 1	 40.82	 14.40	 0.0	 0.0	 1	    1.01111	    0.00000	 225.0	 1	    1.08889	    0.93333;
	12	 1	 0.0	 0.0	 0.0	 0.0	 1	    1.05263	    0.00000	 380.0	 1	    1.10526	    1.00000;
	2572	 1	 0.0	 0.0	 0.0	 0.0	 1	    1.05263	    0.00000	 380.0	 1	    1.10526	    1.00000;
	13	 1	 0.0	 0.0	 0.0	 0.0	 1	    1.04534	    0.00000	 225.0	 1	    1.09067	    1.00000;
	14	 1	 0.20	 -1.10	 0.0	 0.0	 1	    1.00000	    0.00000	 63.0	 1	    1.06349	    0.93651;
	15	 1	 10.30	 -0.20	 0.0	 0.0	 1	    1.00000	    0.00000	 63.0	 1	    1.06349	    0.93651;
	16	 1	 227.88	 54.40	 0.0	 0.0	 1	    1.01111	    0.00000	 225.0	 1	    1.08889	    0.93333;
	17	 1	 65.43	 13.10	 0.0	 0.0	 1	    1.04445	    0.00000	 225.0	 1	    1.08889	    1.00000;
	18	 1	 81.16	 23.20	 0.0	 0.0	 1	    1.04481	    0.00000	 225.0	 1	    1.08962	    1.00000;
	19	 2	 0.0	 0.0	 0.0	 0.0	 1	    1.00362	    0.00000	 63.0	 1	    1.08661	    0.92063;
	20	 1	 180.69	 40.00	 0.0	 0.0	 1	    1.04445	    0.00000	 225.0	 1	    1.08889	    1.00000;
	21	 1	 93.77	 6.20	 0.0	 0.0	 1	    0.98889	    0.00000	 225.0	 1	    1.08889	    0.88889;
	22	 1	 15.00	 -9.40	 0.0	 0.0	 1	    1.00450	    0.00000	 63.0	 1	    1.07249	    0.93651;
	23	 1	 61.11	 6.00	 0.0	 0.0	 1	    1.00000	    0.00000	 63.0	 1	    1.06349	    0.93651;
	24	 1	 0.0	 0.0	 0.0	 0.0	 1	    1.04445	    0.00000	 225.0	 1	    1.08889	    1.00000;
	2573	 1	 0.0	 0.0	 0.0	 0.0	 1	    1.04445	    0.00000	 225.0	 1	    1.08889	    1.00000;
	25	 1	 78.16	 1.60	 0.0	 0.0	 1	    0.98889	    0.00000	 225.0	 1	    1.08889	    0.88889;
	26	 1	 1.60	 -4.20	 0.0	 0.0	 1	    1.04158	    0.00000	 225.0	 1	    1.09649	    0.98667;
	27	 1	 51.39	 2.30	 0.0	 0.0	 1	    1.00000	    0.00000	 63.0	 1	    1.06349	    0.93651;
	28	 1	 47.30	 15.50	 0.0	 0.0	 1	    1.04445	    0.00000	 225.0	 1	    1.08889	    1.00000;
	2574	 1	 50.67	 12.40	 0.0	 0.0	 1	    1.04445	    0.00000	 225.0	 1	    1.08889	    1.00000;
	29	 1	 13.69	 0.50	 0.0	 0.0	 1	    1.00000	    0.00000	 63.0	 1	    1.06349	    0.93651;
	30	 1	 87.28	 36.50	 0.0	 0.0	 1	    1.04445	    0.00000	 225.0	 1	    1.08889	    1.00000;
	31	 1	 2.70	 -1.40	 0.0	 0.0	 1	    1.00431	    0.00000	 63.0	 1	    1.07211	    0.93651;
	32	 1	 13.80	 -0.40	 0.0	 0.0	 1	    1.00000	    0.00000	 63.0	 1	    1.06349	    0.93651;
	33	 1	 2.00	 -0.50	 0.0	 0.0	 1	    0.94444	    0.00000	 45.0	 1	    1.00000	    0.88889;
	34	 1	 0.40	 0.00	 0.0	 0.0	 1	    0.94444	    0.00000	 45.0	 1	    1.00000	    0.88889;
	35	 1	 36.50	 3.00	 0.0	 0.0	 1	    1.01587	    0.00000	 63.0	 1	    1.06349	    0.96825;
	36	 1	 1.90	 -3.10	 0.0	 0.0	 1	    0.94444	    0.00000	 45.0	 1	    1.00000	    0.88889;
	37	 1	 22.69	 0.90	 0.0	 0.0	 1	    1.00000	    0.00000	 63.0	 1	    1.06349	    0.93651;
	38	 2	 0.0	 0.0	 0.0	 0.0	 1	    1.01588	    0.00000	 63.0	 1	    1.07937	    0.95238;
	39	 1	 119.22	 18.80	 0.0	 0.0	 1	    1.03800	    0.00000	 225.0	 1	    1.08934	    0.98667;
	40	 1	 46.46	 0.90	 0.0	 0.0	 1	    0.98889	    0.00000	 225.0	 1	    1.08889	    0.88889;
	41	 1	 107.82	 13.00	 0.0	 0.0	 1	    1.04222	    0.00000	 225.0	 1	    1.08444	    1.00000;
	42	 1	 76.72	 9.70	 0.0	 0.0	 1	    1.00010	    0.00000	 63.0	 1	    1.06370	    0.93651;
	43	 1	 0.0	 0.0	 0.0	 0.0	 1	    1.01111	    0.00000	 225.0	 1	    1.08889	    0.93333;
	44	 1	 33.10	 -6.50	 0.0	 0.0	 1	    1.01587	    0.00000	 63.0	 1	    1.06349	    0.96825;
	45	 1	 202.18	 34.90	 0.0	 0.0	 1	    1.04445	    0.00000	 225.0	 1	    1.08889	    1.00000;
	46	 1	 0.0	 0.0	 0.0	 0.0	 1	    1.05263	    0.00000	 380.0	 1	    1.10526	    1.00000;
	2575	 1	 0.0	 0.0	 0.0	 0.0	 1	    1.05263	    0.00000	 380.0	 1	    1.10526	    1.00000;
	47	 1	 35.42	 4.50	 0.0	 0.0	 1	    1.00128	    0.00000	 63.0	 1	    1.06606	    0.93651;
	48	 1	 1.60	 0.00	 0.0	 0.0	 1	    1.00193	    0.00000	 63.0	 1	    1.06735	    0.93651;
	49	 1	 17.89	 10.40	 0.0	 0.0	 1	    1.01587	    0.00000	 63.0	 1	    1.06349	    0.96825;
	2576	 1	 11.89	 7.20	 0.0	 0.0	 1	    1.01587	    0.00000	 63.0	 1	    1.06349	    0.96825;
	50	 1	 0.0	 0.0	 0.0	 0.0	 1	    1.04222	    0.00000	 225.0	 1	    1.08444	    1.00000;
	51	 1	 137.95	 20.20	 0.0	 0.0	 1	    1.04222	    0.00000	 225.0	 1	    1.08444	    1.00000;
	52	 1	 0.0	 0.0	 0.0	 0.0	 1	    1.04445	    0.00000	 225.0	 1	    1.08889	    1.00000;
	2942	 1	 127.27	 29.60	 0.0	 0.0	 1	    1.04445	    0.00000	 225.0	 1	    1.08889	    1.00000;
	53	 2	 5.70	 -6.60	 0.0	 0.0	 1	    1.01587	    0.00000	 63.0	 1	    1.06349	    0.96825;
	54	 1	 0.0	 0.0	 0.0	 0.0	 1	    1.02333	    0.00000	 150.0	 1	    1.08000	    0.96667;
	55	 1	 78.76	 18.00	 0.0	 80.0	 1	    1.04730	    0.00000	 225.0	 1	    1.09459	    1.00000;
	56	 1	 0.0	 0.0	 0.0	 0.0	 1	    1.05263	    0.00000	 380.0	 1	    1.10526	    1.00000;
	57	 1	 175.77	 39.10	 0.0	 0.0	 1	    1.03778	    0.00000	 225.0	 1	    1.08889	    0.98667;
	59	 1	 94.49	 21.10	 0.0	 0.0	 1	    1.02889	    0.00000	 225.0	 1	    1.08889	    0.96889;
	60	 1	 150.32	 37.60	 0.0	 0.0	 1	    1.05263	    0.00000	 380.0	 1	    1.10526	    1.00000;
	61	 1	 7.20	 1.00	 0.0	 0.0	 1	    1.00000	    0.00000	 63.0	 1	    1.06349	    0.93651;
	63	 1	 43.34	 4.70	 0.0	 7.7	 1	    1.01587	    0.00000	 63.0	 1	    1.06349	    0.96825;
	2577	 1	 0.0	 0.0	 0.0	 0.0	 1	    1.01587	    0.00000	 63.0	 1	    1.06349	    0.96825;
	64	 1	 63.99	 13.40	 0.0	 0.0	 1	    1.01111	    0.00000	 225.0	 1	    1.08889	    0.93333;
	65	 1	 0.0	 0.0	 0.0	 0.0	 1	    1.01587	    0.00000	 63.0	 1	    1.06349	    0.96825;
	66	 1	 43.40	 -0.70	 0.0	 0.0	 1	    0.94444	    0.00000	 45.0	 1	    1.00000	    0.88889;
	2578	 2	 0.0	 0.0	 0.0	 0.0	 1	    0.94444	    0.00000	 45.0	 1	    1.00000	    0.88889;
	67	 1	 49.59	 12.80	 0.0	 0.0	 1	    0.98889	    0.00000	 225.0	 1	    1.08889	    0.88889;
	2579	 1	 46.22	 8.50	 0.0	 0.0	 1	    0.98889	    0.00000	 225.0	 1	    1.08889	    0.88889;
	68	 1	 23.53	 3.70	 0.0	 0.0	 1	    1.00000	    0.00000	 20.0	 1	    1.20000	    0.80000;
	69	 1	 385.04	 74.90	 0.0	 0.0	 1	    1.04343	    0.00000	 225.0	 1	    1.08685	    1.00000;
	70	 1	 140.90	 -22.30	 0.0	 0.0	 1	    1.04445	    0.00000	 225.0	 1	    1.08889	    1.00000;
	71	 2	 0.0	 0.0	 0.0	 0.0	 1	    1.00442	    0.00000	 150.0	 1	    1.10885	    0.90000;
	72	 1	 0.0	 0.0	 0.0	 0.0	 1	    1.04445	    0.00000	 225.0	 1	    1.08889	    1.00000;
	2580	 1	 0.0	 0.0	 0.0	 0.0	 1	    1.04445	    0.00000	 225.0	 1	    1.08889	    1.00000;
	74	 1	 0.0	 0.0	 0.0	 0.0	 1	    1.04445	    0.00000	 225.0	 1	    1.08889	    1.00000;
	75	 1	 18.73	 3.00	 0.0	 0.0	 1	    1.00000	    0.00000	 63.0	 1	    1.06349	    0.93651;
	76	 2	 0.0	 0.0	 0.0	 0.0	 1	    0.94444	    0.00000	 45.0	 1	    1.00000	    0.88889;
	77	 1	 7.68	 0.30	 0.0	 0.0	 1	    1.00272	    0.00000	 63.0	 1	    1.08481	    0.92063;
	78	 1	 5.76	 2.40	 0.0	 0.0	 1	    1.04445	    0.00000	 225.0	 1	    1.08889	    1.00000;
	79	 1	 20.89	 1.70	 0.0	 15.0	 1	    1.00000	    0.00000	 63.0	 1	    1.07937	    0.92063;
	80	 1	 10.00	 -0.60	 0.0	 0.0	 1	    1.00404	    0.00000	 63.0	 1	    1.08744	    0.92063;
	81	 1	 0.0	 0.0	 0.0	 0.0	 1	    1.04445	    0.00000	 225.0	 1	    1.08889	    1.00000;
	82	 1	 75.76	 25.30	 0.0	 0.0	 1	    0.98889	    0.00000	 225.0	 1	    1.08889	    0.88889;
	83	 1	 52.95	 1.90	 0.0	 0.0	 1	    1.01544	    0.00000	 63.0	 1	    1.06349	    0.96740;
	84	 1	 194.86	 51.10	 0.0	 0.0	 1	    1.02889	    0.00000	 225.0	 1	    1.08889	    0.96889;
	85	 1	 0.0	 0.0	 0.0	 0.0	 1	    1.05263	    0.00000	 380.0	 1	    1.10526	    1.00000;
	86	 1	 70.00	 14.10	 0.0	 0.0	 1	    1.01587	    0.00000	 63.0	 1	    1.06349	    0.96825;
	87	 1	 39.02	 4.60	 0.0	 0.0	 1	    1.01587	    0.00000	 63.0	 1	    1.06349	    0.96825;
	88	 1	 1.80	 0.70	 0.0	 0.0	 1	    1.01587	    0.00000	 63.0	 1	    1.06349	    0.96825;
	89	 1	 66.87	 8.30	 0.0	 0.0	 1	    1.01587	    0.00000	 63.0	 1	    1.06349	    0.96825;
	2581	 1	 36.14	 12.20	 0.0	 0.0	 1	    1.01587	    0.00000	 63.0	 1	    1.06349	    0.96825;
	90	 1	 0.0	 0.0	 0.0	 0.0	 1	    1.04222	    0.00000	 225.0	 1	    1.08444	    1.00000;
	2582	 1	 0.0	 0.0	 0.0	 0.0	 1	    1.04222	    0.00000	 225.0	 1	    1.08444	    1.00000;
	91	 1	 228.24	 8.00	 0.0	 0.0	 1	    1.04445	    0.00000	 225.0	 1	    1.08889	    1.00000;
	92	 1	 36.80	 -8.50	 0.0	 0.0	 1	    1.01187	    0.00000	 225.0	 1	    1.09041	    0.93333;
	93	 2	 0.0	 0.0	 0.0	 0.0	 1	    1.00453	    0.00000	 150.0	 1	    1.10907	    0.90000;
	94	 1	 42.86	 55.70	 0.0	 0.0	 1	    1.04222	    0.00000	 225.0	 1	    1.08444	    1.00000;
	2583	 1	 40.82	 3.20	 0.0	 0.0	 1	    1.04222	    0.00000	 225.0	 1	    1.08444	    1.00000;
	95	 1	 0.0	 0.0	 0.0	 0.0	 1	    1.03333	    0.00000	 225.0	 1	    1.08889	    0.97778;
	96	 1	 19.09	 4.10	 0.0	 0.0	 1	    0.98889	    0.00000	 225.0	 1	    1.08889	    0.88889;
	97	 1	 48.50	 6.50	 0.0	 0.0	 1	    1.01587	    0.00000	 63.0	 1	    1.06349	    0.96825;
	98	 1	 -3.50	 -1.60	 0.0	 0.0	 1	    1.01111	    0.00000	 225.0	 1	    1.08889	    0.93333;
	99	 1	 21.85	 5.50	 0.0	 0.0	 1	    1.04445	    0.00000	 225.0	 1	    1.08889	    1.00000;
	2584	 1	 39.86	 14.10	 0.0	 0.0	 1	    1.04445	    0.00000	 225.0	 1	    1.08889	    1.00000;
	100	 1	 -17.20	 -4.30	 0.0	 0.0	 1	    1.04445	    0.00000	 225.0	 1	    1.08889	    1.00000;
	101	 1	 29.29	 1.90	 0.0	 0.0	 1	    1.03778	    0.00000	 225.0	 1	    1.08889	    0.98667;
	102	 1	 0.0	 0.0	 0.0	 80.0	 1	    0.98889	    0.00000	 225.0	 1	    1.08889	    0.88889;
	2585	 1	 0.0	 0.0	 0.0	 0.0	 1	    0.98889	    0.00000	 225.0	 1	    1.08889	    0.88889;
	103	 1	 0.0	 0.0	 0.0	 0.0	 1	    1.05263	    0.00000	 380.0	 1	    1.10526	    1.00000;
	104	 1	 89.93	 14.30	 0.0	 0.0	 1	    1.04445	    0.00000	 225.0	 1	    1.08889	    1.00000;
	2586	 1	 34.82	 6.80	 0.0	 0.0	 1	    1.04445	    0.00000	 225.0	 1	    1.08889	    1.00000;
	105	 1	 13.69	 9.20	 0.0	 0.0	 1	    1.00000	    0.00000	 63.0	 1	    1.07937	    0.92063;
	106	 1	 0.0	 0.0	 0.0	 0.0	 1	    1.03333	    0.00000	 225.0	 1	    1.08889	    0.97778;
	2587	 1	 0.0	 0.0	 0.0	 0.0	 1	    1.03333	    0.00000	 225.0	 1	    1.08889	    0.97778;
	107	 1	 6.84	 10.30	 0.0	 0.0	 1	    1.01587	    0.00000	 63.0	 1	    1.06349	    0.96825;
	108	 1	 64.95	 1.90	 0.0	 0.0	 1	    1.04222	    0.00000	 225.0	 1	    1.08444	    1.00000;
	109	 1	 0.0	 0.0	 0.0	 0.0	 1	    1.04222	    0.00000	 225.0	 1	    1.08444	    1.00000;
	110	 1	 0.0	 0.0	 0.0	 0.0	 1	    1.05131	    0.00000	 380.0	 1	    1.10263	    1.00000;
	111	 1	 124.02	 18.00	 0.0	 0.0	 1	    1.04222	    0.00000	 225.0	 1	    1.08444	    1.00000;
	112	 1	 -1.50	 2.20	 0.0	 0.0	 1	    1.04517	    0.00000	 225.0	 1	    1.09035	    1.00000;
	2588	 1	 16.50	 -0.10	 0.0	 0.0	 1	    1.04517	    0.00000	 225.0	 1	    1.09035	    1.00000;
	113	 1	 56.43	 9.80	 0.0	 0.0	 1	    0.98889	    0.00000	 225.0	 1	    1.08889	    0.88889;
	114	 1	 52.59	 0.60	 0.0	 0.0	 1	    1.00000	    0.00000	 63.0	 1	    1.06349	    0.93651;
	115	 1	 19.69	 1.20	 0.0	 0.0	 1	    0.98889	    0.00000	 225.0	 1	    1.08889	    0.88889;
	116	 1	 68.31	 18.90	 0.0	 0.0	 1	    0.98889	    0.00000	 225.0	 1	    1.08889	    0.88889;
	117	 1	 3.84	 0.40	 0.0	 0.0	 1	    1.01587	    0.00000	 63.0	 1	    1.06349	    0.96825;
	118	 1	 52.83	 10.00	 0.0	 0.0	 1	    1.00000	    0.00000	 63.0	 1	    1.07937	    0.92063;
	119	 1	 28.50	 -5.10	 0.0	 0.0	 1	    1.01587	    0.00000	 63.0	 1	    1.06349	    0.96825;
	120	 2	 0.0	 0.0	 0.0	 0.0	 1	    1.00257	    0.00000	 63.0	 1	    1.06863	    0.93651;
	121	 1	 10.21	 3.10	 0.0	 0.0	 1	    1.01587	    0.00000	 63.0	 1	    1.06349	    0.96825;
	2589	 1	 18.01	 6.80	 0.0	 0.0	 1	    1.01587	    0.00000	 63.0	 1	    1.06349	    0.96825;
	122	 1	 142.70	 -26.60	 0.0	 0.0	 1	    1.04445	    0.00000	 225.0	 1	    1.08889	    1.00000;
	123	 1	 38.90	 7.90	 0.0	 0.0	 1	    1.00000	    0.00000	 63.0	 1	    1.07937	    0.92063;
	124	 2	 4.70	 -2.00	 0.0	 0.0	 1	    1.00133	    0.00000	 63.0	 1	    1.08203	    0.92063;
	125	 1	 0.0	 0.0	 0.0	 0.0	 1	    1.00000	    0.00000	 63.0	 1	    1.07937	    0.92063;
	126	 1	 0.0	 0.0	 0.0	 0.0	 1	    1.04445	    0.00000	 225.0	 1	    1.08889	    1.00000;
	127	 1	 0.0	 0.0	 0.0	 0.0	 1	    1.05263	    0.00000	 380.0	 1	    1.10526	    1.00000;
	128	 1	 31.70	 3.80	 0.0	 0.0	 1	    1.00000	    0.00000	 63.0	 1	    1.06349	    0.93651;
	129	 2	 19.57	 7.50	 0.0	 0.0	 1	    1.00000	    0.00000	 63.0	 1	    1.06349	    0.93651;
	130	 1	 13.09	 16.30	 0.0	 0.0	 1	    1.00000	    0.00000	 63.0	 1	    1.07937	    0.92063;
	2955	 1	 0.0	 0.0	 0.0	 0.0	 1	    1.00000	    0.00000	 63.0	 1	    1.07937	    0.92063;
	131	 1	 0.0	 0.0	 0.0	 0.0	 1	    1.04445	    0.00000	 225.0	 1	    1.08889	    1.00000;
	132	 1	 167.01	 40.00	 0.0	 0.0	 1	    1.04445	    0.00000	 225.0	 1	    1.08889	    1.00000;
	133	 2	 11.05	 3.60	 0.0	 0.0	 1	    1.01682	    0.00000	 63.0	 1	    1.06538	    0.96825;
	134	 2	 0.0	 0.0	 0.0	 0.0	 1	    1.02333	    0.00000	 150.0	 1	    1.08000	    0.96667;
	135	 2	 -14.90	 -4.80	 0.0	 0.0	 1	    1.00000	    0.00000	 63.0	 1	    1.07937	    0.92063;
	136	 1	 38.06	 10.20	 0.0	 0.0	 1	    1.03778	    0.00000	 225.0	 1	    1.08889	    0.98667;
	137	 1	 9.70	 -2.10	 0.0	 0.0	 1	    1.01587	    0.00000	 63.0	 1	    1.06349	    0.96825;
	138	 1	 15.37	 5.80	 0.0	 0.0	 1	    1.04222	    0.00000	 225.0	 1	    1.08444	    1.00000;
	140	 1	 0.0	 0.0	 0.0	 0.0	 1	    1.05263	    0.00000	 380.0	 1	    1.10526	    1.00000;
	2590	 1	 0.0	 0.0	 0.0	 0.0	 1	    1.05263	    0.00000	 380.0	 1	    1.10526	    1.00000;
	141	 1	 24.97	 1.10	 0.0	 0.0	 1	    1.04445	    0.00000	 225.0	 1	    1.08889	    1.00000;
	142	 1	 12.37	 9.60	 0.0	 0.0	 1	    1.04445	    0.00000	 225.0	 1	    1.08889	    1.00000;
	143	 1	 34.46	 2.30	 0.0	 0.0	 1	    1.01587	    0.00000	 63.0	 1	    1.06349	    0.96825;
	144	 1	 99.53	 11.10	 0.0	 0.0	 1	    1.00000	    0.00000	 150.0	 1	    1.10000	    0.90000;
	145	 1	 87.52	 0.20	 0.0	 0.0	 1	    1.04462	    0.00000	 225.0	 1	    1.08925	    1.00000;
	146	 2	 -3.70	 -0.50	 0.0	 0.0	 1	    1.04445	    0.00000	 225.0	 1	    1.08889	    1.00000;
	147	 1	 0.0	 0.0	 0.0	 0.0	 1	    1.01111	    0.00000	 225.0	 1	    1.08889	    0.93333;
	148	 1	 0.0	 0.0	 0.0	 0.0	 1	    1.05263	    0.00000	 380.0	 1	    1.10526	    1.00000;
	2591	 1	 0.0	 0.0	 0.0	 0.0	 1	    1.05263	    0.00000	 380.0	 1	    1.10526	    1.00000;
	149	 1	 0.0	 0.0	 0.0	 0.0	 1	    1.04445	    0.00000	 225.0	 1	    1.08889	    1.00000;
	2592	 1	 79.36	 19.50	 0.0	 0.0	 1	    1.04445	    0.00000	 225.0	 1	    1.08889	    1.00000;
	150	 1	 0.0	 0.0	 0.0	 0.0	 1	    1.03778	    0.00000	 225.0	 1	    1.08889	    0.98667;
	151	 1	 28.81	 9.70	 0.0	 0.0	 1	    1.04445	    0.00000	 225.0	 1	    1.08889	    1.00000;
	153	 1	 164.60	 23.10	 0.0	 0.0	 1	    1.01111	    0.00000	 225.0	 1	    1.08889	    0.93333;
	154	 1	 0.0	 0.0	 0.0	 0.0	 1	    1.05263	    0.00000	 380.0	 1	    1.10526	    1.00000;
	155	 1	 66.39	 18.40	 0.0	 0.0	 1	    1.04445	    0.00000	 225.0	 1	    1.08889	    1.00000;
	156	 1	 37.10	 4.20	 0.0	 0.0	 1	    1.00077	    0.00000	 63.0	 1	    1.06503	    0.93651;
	157	 1	 2.88	 0.40	 0.0	 0.0	 1	    1.01587	    0.00000	 63.0	 1	    1.06349	    0.96825;
	158	 1	 33.02	 2.20	 0.0	 0.0	 1	    1.00000	    0.00000	 63.0	 1	    1.07937	    0.92063;
	159	 1	 29.17	 1.90	 0.0	 0.0	 1	    1.01587	    0.00000	 63.0	 1	    1.06349	    0.96825;
	160	 1	 6.72	 3.00	 0.0	 0.0	 1	    1.00000	    0.00000	 63.0	 1	    1.06349	    0.93651;
	161	 2	 0.0	 0.0	 0.0	 0.0	 1	    0.97500	    0.00000	 63.0	 1	    1.15000	    0.80000;
	162	 1	 0.50	 -40.50	 0.0	 0.0	 1	    1.04527	    0.00000	 225.0	 1	    1.09053	    1.00000;
	163	 1	 0.0	 0.0	 0.0	 0.0	 1	    1.01587	    0.00000	 63.0	 1	    1.06349	    0.96825;
	164	 1	 109.30	 -1.70	 0.0	 0.0	 1	    1.04895	    0.00000	 225.0	 1	    1.09791	    1.00000;
	165	 1	 224.88	 17.60	 0.0	 0.0	 1	    1.03778	    0.00000	 225.0	 1	    1.08889	    0.98667;
	166	 1	 61.95	 6.20	 0.0	 0.0	 1	    1.01587	    0.00000	 63.0	 1	    1.06349	    0.96825;
	167	 1	 143.23	 36.70	 0.0	 0.0	 1	    1.04534	    0.00000	 225.0	 1	    1.09067	    1.00000;
	168	 1	 14.10	 -5.70	 0.0	 0.0	 1	    1.00000	    0.00000	 63.0	 1	    1.06349	    0.93651;
	169	 1	 24.10	 -4.60	 0.0	 0.0	 1	    1.01587	    0.00000	 63.0	 1	    1.06349	    0.96825;
	170	 1	 2.16	 0.30	 0.0	 0.0	 1	    1.00236	    0.00000	 63.0	 1	    1.06822	    0.93651;
	171	 1	 217.91	 51.40	 0.0	 0.0	 1	    1.00667	    0.00000	 225.0	 1	    1.08889	    0.92444;
	172	 2	 -0.00	 1.20	 0.0	 0.0	 1	    1.01587	    0.00000	 63.0	 1	    1.06349	    0.96825;
	173	 1	 99.05	 15.90	 0.0	 0.0	 1	    1.04141	    0.00000	 225.0	 1	    1.09616	    0.98667;
	174	 1	 0.0	 0.0	 0.0	 0.0	 1	    1.05263	    0.00000	 380.0	 1	    1.10526	    1.00000;
	2998	 1	 0.0	 0.0	 0.0	 0.0	 1	    1.05263	    0.00000	 380.0	 1	    1.10526	    1.00000;
	175	 1	 120.70	 -49.60	 0.0	 0.0	 1	    1.04222	    0.00000	 225.0	 1	    1.08444	    1.00000;
	177	 1	 0.0	 0.0	 0.0	 0.0	 1	    1.01217	    0.00000	 63.0	 1	    1.06349	    0.96086;
	178	 1	 0.0	 0.0	 0.0	 0.0	 1	    1.04222	    0.00000	 225.0	 1	    1.08444	    1.00000;
	179	 1	 0.0	 0.0	 0.0	 0.0	 1	    1.05131	    0.00000	 380.0	 1	    1.10263	    1.00000;
	180	 1	 6.00	 0.60	 0.0	 0.0	 1	    1.01111	    0.00000	 225.0	 1	    1.08889	    0.93333;
	181	 1	 -3.00	 -14.30	 0.0	 0.0	 1	    0.95270	    0.00000	 45.0	 1	    1.01652	    0.88889;
	182	 1	 0.0	 0.0	 0.0	 0.0	 1	    1.00000	    0.00000	 63.0	 1	    1.06349	    0.93651;
...
];

%% generator data
%	bus	Pg	Qg	Qmax	Qmin	Vg	mBase	status	Pmax	Pmin
mpc.gen = [
	1279	 0.0	 0.0	 26.0	 -26.0	 1.04445	 100.0	 0	 51	 3.5; % NG
	1210	 32.805	 0.0	 31.0	 -31.0	 1.0	 100.0	 1	 62	 3.61; % PEL
	751	 38.3	 0.0	 4544.4	 -4544.4	 1.01588	 100.0	 1	 72	 4.6; % NG
	2777	 55.5	 0.0	 56.0	 -56.0	 1.0	 100.0	 1	 111	 0.0; % NG
	2777	 33.35	 0.0	 33.0	 -33.0	 1.0	 100.0	 1	 66	 0.7; % PEL
	978	 48.1	 0.0	 48.0	 -48.0	 1.0	 100.0	 1	 95	 1.2; % NG
	158	 39.5	 0.0	 40.0	 -40.0	 1.0	 100.0	 1	 79	 0.0; % PEL
	1217	 19.15	 0.0	 19.0	 -19.0	 1.02261	 100.0	 1	 37	 1.3; % NG
	367	 74.5	 0.0	 86.4	 -86.4	 1.0	 100.0	 1	 144	 5.0; % PEL
	1127	 30.3	 0.0	 30.0	 -30.0	 1.01587	 100.0	 1	 59	 1.6; % NG
	460	 0.0	 0.0	 40.0	 -40.0	 1.04643	 100.0	 0	 2	 12.4; % NG
	968	 34.9	 0.0	 3770.4	 -3770.4	 1.0	 100.0	 1	 68	 1.8; % PEL
	1827	 108.6	 0.0	 108.0	 -108.0	 1.03333	 100.0	 1	 215	 2.2; % NG
	1466	 100.75	 0.0	 101.0	 -101.0	 1.0	 100.0	 1	 201	 0.5; % NG
	2863	 83.75	 0.0	 84.0	 -84.0	 1.0	 100.0	 1	 167	 0.5; % NG
	1466	 90.75	 0.0	 91.0	 -91.0	 1.0	 100.0	 1	 181	 0.5; % NG
	2863	 36.75	 0.0	 37.0	 -37.0	 1.0	 100.0	 1	 73	 0.5; % NG
	1072	 0.0	 0.0	 32.0	 -32.0	 1.00445	 100.0	 0	 63	 1.2; % NG
	1072	 0.0	 0.0	 88.0	 -88.0	 1.00445	 100.0	 0	 175	 1.4; % NG
	1072	 0.0	 0.0	 38.0	 -38.0	 1.00445	 100.0	 0	 75	 1.2; % COW
	642	 36.0175	 0.0	 36.0	 -36.0	 1.02121	 100.0	 1	 71	 1.035; % NG
	642	 75.0175	 0.0	 75.0	 -75.0	 1.02121	 100.0	 1	 149	 1.035; % NG
	542	 88.25	 0.0	 87.0	 -87.0	 1.01587	 100.0	 1	 174	 2.5; % PEL
	773	 55.6	 0.0	 55.0	 -55.0	 1.0	 100.0	 1	 110	 1.2; % NG
	399	 20.69	 0.0	 20.0	 -20.0	 1.01587	 100.0	 1	 40	 1.38; % COW
	399	 25.5	 0.0	 26.0	 -26.0	 1.01587	 100.0	 1	 51	 0.0; % PEL
	21	 173.2	 0.0	 172.0	 -172.0	 0.98889	 100.0	 1	 344	 2.4; % NG
	21	 185.88	 0.0	 185.0	 -185.0	 0.98889	 100.0	 1	 369	 2.76; % PEL
	899	 36.4	 0.0	 36.0	 -36.0	 1.00071	 100.0	 1	 71	 1.8; % COW
	899	 19.05	 0.0	 18.0	 -18.0	 1.00071	 100.0	 1	 36	 2.1; % NG
	2618	 84.3	 0.0	 84.0	 -84.0	 1.0	 100.0	 1	 168	 0.6; % PEL
	2618	 44.875	 0.0	 43.0	 -43.0	 1.0	 100.0	 1	 86	 3.75; % PEL
	285	 43.3	 0.0	 43.0	 -43.0	 1.0	 100.0	 1	 86	 0.6; % PEL
	285	 101.375	 0.0	 100.0	 -100.0	 1.0	 100.0	 1	 199	 3.75; % NG
	135	 48.15	 0.0	 48.0	 -48.0	 1.0	 100.0	 1	 95	 1.3; % PEL
	53	 33.4	 0.0	 33.0	 -33.0	 1.01587	 100.0	 1	 65	 1.8; % NG
	53	 24.9	 0.0	 24.0	 -24.0	 1.01587	 100.0	 1	 48	 1.8; % PEL
	596	 491.5	 0.0	 492.0	 -492.0	 1.04598	 100.0	 1	 983	 0.0; % NG
	958	 45.5	 0.0	 46.0	 -46.0	 0.975	 100.0	 1	 91	 0.0; % NG
	1679	 40.05	 0.0	 39.0	 -39.0	 1.0	 100.0	 1	 78	 2.1; % PEL
	1679	 42.55	 0.0	 42.0	 -42.0	 1.0	 100.0	 1	 83	 2.1; % PEL
	1157	 124.36	 0.0	 124.0	 -124.0	 1.01587	 100.0	 1	 248	 0.72; % COW
	513	 0.0	 0.0	 85.0	 -85.0	 1.0	 100.0	 0	 170	 1.1; % NG
	513	 0.0	 0.0	 58.0	 -58.0	 1.0	 100.0	 0	 115	 1.1; % NG
	371	 82.9	 0.0	 83.0	 -83.0	 1.0	 100.0	 1	 165	 0.8; % NG
	371	 24.4	 0.0	 24.0	 -24.0	 1.0	 100.0	 1	 48	 0.8; % PEL
	976	 44.75	 0.0	 43.0	 -43.0	 1.01587	 100.0	 1	 86	 3.5; % NG
	976	 44.75	 0.0	 43.0	 -43.0	 1.01587	 100.0	 1	 86	 3.5; % PEL
	2754	 101.575	 0.0	 101.0	 -101.0	 1.01948	 100.0	 1	 202	 1.15; % NG
	749	 0.0	 0.0	 53.0	 -53.0	 0.94444	 100.0	 0	 105	 0.85; % NG
	1188	 47.5	 0.0	 309.6	 -309.6	 1.00463	 100.0	 1	 93	 2.0; % PEL
	1254	 15.7	 0.0	 22.8	 -22.8	 1.00129	 100.0	 1	 29	 2.4; % PEL
	252	 16.05	 0.0	 16.0	 -16.0	 0.94444	 100.0	 1	 31	 1.1; % COW
	252	 34.45	 0.0	 34.0	 -34.0	 0.94444	 100.0	 1	 68	 0.9; % NG
	252	 18.05	 0.0	 18.0	 -18.0	 0.94444	 100.0	 1	 35	 1.1; % NG
	252	 16.95	 0.0	 17.0	 -17.0	 0.94444	 100.0	 1	 33	 0.9; % NG
	504	 38.62	 0.0	 38.0	 -38.0	 0.94451	 100.0	 1	 76	 1.24; % NG
	115	 288.265	 0.0	 287.0	 -287.0	 0.98889	 100.0	 1	 574	 2.53; % PEL
	967	 41.0	 0.0	 3570.0	 -3570.0	 1.0	 100.0	 1	 82	 0.0; % PEL
	1811	 61.95	 0.0	 62.0	 -62.0	 1.00381	 100.0	 1	 123	 0.9; % NG
	2634	 73.7	 0.0	 73.0	 -73.0	 1.0	 100.0	 1	 146	 1.4; % NG
	326	 50.2	 0.0	 73.2	 -73.2	 1.0	 100.0	 1	 99	 1.4; % NG
	1829	 143.64	 0.0	 143.0	 -143.0	 1.0	 100.0	 1	 286	 1.28; % COW
	1314	 27.45	 0.0	 26.0	 -26.0	 1.0057	 100.0	 1	 51	 3.9; % COW
	71	 28.5	 0.0	 325.2	 -325.2	 1.00442	 100.0	 1	 54	 3.0; % NG
	93	 0.0	 0.0	 55.0	 -55.0	 1.00453	 100.0	 0	 109	 0.6; % NG
	129	 156.55	 0.0	 156.0	 -156.0	 1.0	 100.0	 1	 312	 1.1; % PEL
	1594	 53.6	 0.0	 53.0	 -53.0	 1.02196	 100.0	 1	 106	 1.2; % NG
	1594	 49.1	 0.0	 49.0	 -49.0	 1.02196	 100.0	 1	 97	 1.2; % NG
	1354	 39.5	 0.0	 40.0	 -40.0	 1.01587	 100.0	 1	 79	 0.0; % NG
	1133	 70.8625	 0.0	 70.0	 -70.0	 1.01587	 100.0	 1	 140	 1.725; % NG
	1405	 41.89	 0.0	 40.0	 -40.0	 1.0	 100.0	 1	 80	 3.78; % PEL
	2850	 26.39	 0.0	 25.0	 -25.0	 1.0	 100.0	 1	 49	 3.78; % PEL
	2849	 26.39	 0.0	 25.0	 -25.0	 1.0	 100.0	 1	 49	 3.78; % PEL
	1122	 54.845	 0.0	 55.0	 -55.0	 1.01587	 100.0	 1	 109	 0.69; % NG
	1708	 173.5	 0.0	 163.0	 -163.0	 1.03778	 100.0	 1	 325	 22.0; % NG
	1708	 137.0	 0.0	 126.0	 -126.0	 1.03778	 100.0	 1	 252	 22.0; % NG
	1658	 28.495	 0.0	 142.8	 -142.8	 1.0	 100.0	 1	 54	 2.99; % PEL
	2884	 34.685	 0.0	 202.8	 -202.8	 1.0	 100.0	 1	 68	 1.37; % PEL
	1154	 51.54	 0.0	 51.0	 -51.0	 1.0	 100.0	 1	 101	 2.08; % PEL
	231	 54.415	 0.0	 54.0	 -54.0	 1.01111	 100.0	 1	 108	 0.83; % COW
	2887	 111.685	 0.0	 111.0	 -111.0	 1.0	 100.0	 1	 221	 2.37; % NG
	2888	 58.185	 0.0	 57.6	 -57.6	 1.0	 100.0	 1	 114	 2.37; % NG
	1666	 82.185	 0.0	 81.0	 -81.0	 1.0	 100.0	 1	 162	 2.37; % NG
	499	 13.85	 0.0	 13.0	 -13.0	 1.02872	 100.0	 1	 26	 1.7; % PEL
	499	 56.35	 0.0	 56.0	 -56.0	 1.02872	 100.0	 1	 112	 0.7; % NG
	499	 32.35	 0.0	 32.0	 -32.0	 1.02872	 100.0	 1	 63	 1.7; % NG
	2709	 29.7	 0.0	 29.0	 -29.0	 1.0	 100.0	 1	 57	 2.4; % PEL
	709	 32.7	 0.0	 32.0	 -32.0	 1.0	 100.0	 1	 63	 2.4; % PEL
	2710	 45.2	 0.0	 44.0	 -44.0	 1.0	 100.0	 1	 88	 2.4; % PEL
	2708	 49.2	 0.0	 48.0	 -48.0	 1.0	 100.0	 1	 96	 2.4; % PEL
	1280	 26.9	 0.0	 554.4	 -554.4	 1.00169	 100.0	 1	 52	 1.8; % PEL
	1493	 0.0	 0.0	 11.0	 -11.0	 0.94444	 100.0	 0	 11	 1.8; % PEL
	745	 25.45	 0.0	 24.0	 -24.0	 1.0	 100.0	 1	 48	 2.9; % NG
	2727	 42.45	 0.0	 41.0	 -41.0	 1.0	 100.0	 1	 82	 2.9; % NG
	1445	 396.75	 0.0	 394.0	 -394.0	 1.02667	 100.0	 1	 788	 5.5; % NG
	316	 49.5	 0.0	 50.0	 -50.0	 0.9767	 100.0	 1	 99	 0.0; % NG
	316	 46.99	 0.0	 47.0	 -47.0	 0.9767	 100.0	 1	 93	 0.98; % NG
	564	 59.0	 0.0	 5220.0	 -5220.0	 1.01587	 100.0	 1	 117	 1.0; % NG
	1047	 21.6	 0.0	 21.0	 -21.0	 1.00054	 100.0	 1	 42	 1.2; % PEL
	1047	 51.5	 0.0	 52.0	 -52.0	 1.00054	 100.0	 1	 103	 0.0; % PEL
	1335	 73.0	 0.0	 73.0	 -73.0	 1.00381	 100.0	 1	 146	 0.0; % PEL
	2624	 24.55	 0.0	 23.0	 -23.0	 1.0	 100.0	 1	 46	 3.1; % PEL
	298	 33.55	 0.0	 32.0	 -32.0	 1.0	 100.0	 1	 64	 3.1; % NG
	298	 39.55	 0.0	 38.0	 -38.0	 1.0	 100.0	 1	 76	 3.1; % COW
	2625	 73.05	 0.0	 72.0	 -72.0	 1.0	 100.0	 1	 143	 3.1; % COW
	2625	 20.55	 0.0	 19.0	 -19.0	 1.0	 100.0	 1	 38	 3.1; % PEL
	2624	 50.55	 0.0	 49.0	 -49.0	 1.0	 100.0	 1	 98	 3.1; % NG
	2721	 33.2	 0.0	 32.0	 -32.0	 1.0	 100.0	 1	 64	 2.4; % PEL
	2718	 142.7	 0.0	 142.0	 -142.0	 1.0	 100.0	 1	 283	 2.4; % NG
	741	 67.2	 0.0	 66.0	 -66.0	 1.0	 100.0	 1	 132	 2.4; % PEL
	2719	 43.7	 0.0	 43.0	 -43.0	 1.0	 100.0	 1	 85	 2.4; % COW
	2720	 38.2	 0.0	 37.0	 -37.0	 1.0	 100.0	 1	 74	 2.4; % PEL
	283	 206.675	 0.0	 206.0	 -206.0	 0.98889	 100.0	 1	 411	 2.35; % NG
	1506	 158.35	 0.0	 157.0	 -157.0	 1.01641	 100.0	 1	 314	 2.7; % COW
	1506	 55.35	 0.0	 54.0	 -54.0	 1.01641	 100.0	 1	 108	 2.7; % PEL
	1847	 42.6	 0.0	 41.0	 -41.0	 1.01587	 100.0	 1	 82	 3.2; % PEL
	1398	 46.5	 0.0	 46.0	 -46.0	 1.0	 100.0	 1	 91	 2.0; % COW
	1398	 56.0175	 0.0	 55.0	 -55.0	 1.0	 100.0	 1	 110	 2.035; % PEL
	225	 65.75	 0.0	 64.0	 -64.0	 1.0	 100.0	 1	 127	 4.5; % PEL
	225	 113.75	 0.0	 112.0	 -112.0	 1.0	 100.0	 1	 223	 4.5; % NG
	1607	 27.0	 0.0	 27.0	 -27.0	 1.0	 100.0	 1	 54	 0.0; % PEL
	314	 24.5	 0.0	 24.0	 -24.0	 0.94488	 100.0	 1	 47	 2.0; % PEL
	2680	 227.0	 0.0	 216.0	 -216.0	 1.0	 100.0	 1	 432	 22.0; % NG
	582	 128.0	 0.0	 108.0	 -108.0	 1.0	 100.0	 1	 215	 41.0; % PEL
	2978	 139.5	 0.0	 119.0	 -119.0	 1.0	 100.0	 1	 238	 41.0; % NG
	2977	 244.5	 0.0	 234.0	 -234.0	 1.0	 100.0	 1	 467	 22.0; % NG
	240	 89.45	 1.0	 80.0	 -78.0	 1.05347	 100.0	 1	 155	 23.9; % NG
	1655	 58.1	 0.0	 58.0	 -58.0	 1.0	 100.0	 1	 115	 1.2; % NG
	1655	 37.0	 0.0	 37.0	 -37.0	 1.0	 100.0	 1	 74	 0.0; % NG
	1150	 204.2	 0.0	 202.0	 -202.0	 1.03778	 100.0	 1	 403	 5.4; % COW
	1447	 38.85	 0.0	 40.8	 -40.8	 1.01587	 100.0	 1	 77	 0.7; % NG
	906	 0.0	 0.0	 60.0	 -60.0	 1.04623	 100.0	 0	 119	 2.1; % NG
	1474	 0.0	 -0.0	 14.0	 -14.0	 1.01587	 100.0	 0	 27	 0.0; % PEL
	1474	 56.9	 0.0	 57.0	 -57.0	 1.01587	 100.0	 1	 113	 0.8; % PEL
	1474	 38.9	 0.0	 39.0	 -39.0	 1.01587	 100.0	 1	 77	 0.8; % PEL
	963	 90.445	 0.0	 90.0	 -90.0	 1.01587	 100.0	 1	 180	 0.89; % PEL
	962	 93.1	 0.0	 92.0	 -92.0	 1.0	 100.0	 1	 184	 2.2; % PEL
	923	 77.1	 0.0	 77.0	 -77.0	 1.01587	 100.0	 1	 153	 1.2; % COW
	1153	 23.3	 0.0	 260.4	 -260.4	 1.00165	 100.0	 1	 45	 1.6; % NG
	1153	 38.34	 0.0	 260.4	 -260.4	 1.00165	 100.0	 1	 75	 1.68; % PEL
	274	 25.835	 0.0	 26.0	 -26.0	 1.0	 100.0	 1	 51	 0.67; % NG
	274	 31.28	 0.0	 31.0	 -31.0	 1.0	 100.0	 1	 62	 0.56; % COW
	1776	 34.5	 0.0	 34.0	 -34.0	 1.01587	 100.0	 1	 68	 1.0; % NG
	1776	 57.0	 0.0	 57.0	 -57.0	 1.01587	 100.0	 1	 113	 1.0; % PEL
	2914	 46.5	 0.0	 46.0	 -46.0	 1.01587	 100.0	 1	 92	 1.0; % NG
	2914	 31.5	 0.0	 31.0	 -31.0	 1.01587	 100.0	 1	 62	 1.0; % COW
	184	 0.0	 0.0	 27.0	 -27.0	 1.03333	 100.0	 0	 53	 2.34; % PEL
	1657	 23.3	 0.0	 22.0	 -22.0	 1.02333	 100.0	 1	 44	 2.6; % PEL
	1657	 43.8	 0.0	 43.0	 -43.0	 1.02333	 100.0	 1	 85	 2.6; % PEL
	1761	 22.0	 0.0	 34.8	 -34.8	 1.00445	 100.0	 1	 44	 0.0; % PEL
	1761	 0.0	 0.0	 8.0	 -8.0	 1.00445	 100.0	 0	 16	 1.1; % PEL
	1868	 108.5	 0.0	 107.0	 -107.0	 1.0	 100.0	 1	 214	 3.0; % NG
	1868	 65.0	 0.0	 64.0	 -64.0	 1.0	 100.0	 1	 127	 3.0; % NG
	731	 0.0	 0.0	 27.0	 -27.0	 1.0	 100.0	 0	 53	 4.3; % NG
	2715	 0.0	 0.0	 26.0	 -26.0	 1.0	 100.0	 0	 51	 3.8; % NG
	1263	 30.155	 0.0	 29.0	 -29.0	 1.0	 100.0	 1	 58	 2.31; % PEL
	1263	 28.655	 0.0	 28.0	 -28.0	 1.0	 100.0	 1	 55	 2.31; % NG
	161	 46.9	 0.0	 46.0	 -46.0	 0.975	 100.0	 1	 92	 1.8; % PEL
	604	 65.01	 0.0	 65.0	 -65.0	 1.0	 100.0	 1	 129	 1.02; % NG
	918	 144.8	 0.0	 144.0	 -144.0	 1.0	 100.0	 1	 287	 2.6; % NG
	1760	 43.575	 0.0	 43.0	 -43.0	 1.00138	 100.0	 1	 86	 1.15; % NG
	1760	 21.075	 0.0	 30.0	 -30.0	 1.00138	 100.0	 1	 41	 1.15; % PEL
	1414	 68.65	 0.0	 68.0	 -68.0	 1.0	 100.0	 1	 136	 1.3; % PEL
	1414	 18.6	 0.0	 18.0	 -18.0	 1.0	 100.0	 1	 36	 1.2; % NG
	662	 35.5	 0.0	 34.0	 -34.0	 1.0	 100.0	 1	 67	 4.0; % NG
	2697	 42.0	 0.0	 40.0	 -40.0	 1.0	 100.0	 1	 80	 4.0; % NG
	2696	 45.0	 0.0	 43.0	 -43.0	 1.0	 100.0	 1	 86	 4.0; % PEL
	1346	 17.1	 0.0	 21.6	 -21.6	 1.0	 100.0	 1	 33	 1.2; % PEL
	1346	 20.6	 0.0	 21.6	 -21.6	 1.0	 100.0	 1	 40	 1.2; % NG
	2622	 11.4	 0.0	 26.0	 -26.0	 1.0	 100.0	 1	 22	 0.8; % NG
	2622	 12.25	 0.0	 26.0	 -26.0	 1.0	 100.0	 1	 23	 1.5; % COW
	291	 24.95	 0.0	 26.0	 -26.0	 1.0	 100.0	 1	 48	 1.9; % NG
	1490	 107.03	 0.0	 107.0	 -107.0	 1.0	 100.0	 1	 213	 1.06; % NG
	1671	 120.57	 0.0	 120.0	 -120.0	 1.01588	 100.0	 1	 239	 2.14; % NG
	1615	 38.45	 0.0	 37.0	 -37.0	 1.0	 100.0	 1	 73	 3.9; % NG
	1681	 108.35	 0.0	 104.0	 -104.0	 1.04445	 100.0	 1	 208	 8.7; % NG
	418	 61.25	 0.0	 78.0	 -78.0	 1.0	 100.0	 1	 115	 7.5; % NG
	2658	 81.75	 0.0	 78.0	 -78.0	 1.0	 100.0	 1	 156	 7.5; % NG
	418	 100.75	 0.0	 97.0	 -97.0	 1.0	 100.0	 1	 194	 7.5; % NG
	2658	 96.75	 0.0	 93.0	 -93.0	 1.0	 100.0	 1	 186	 7.5; % PEL
	461	 106.07	 0.0	 104.0	 -104.0	 1.04445	 100.0	 1	 208	 4.14; % NG
	31	 27.335	 0.0	 27.0	 -27.0	 1.00431	 100.0	 1	 54	 0.67; % NG
	236	 67.75	 0.0	 67.0	 -67.0	 1.01587	 100.0	 1	 134	 1.5; % COW
	236	 39.25	 0.0	 39.0	 -39.0	 1.01587	 100.0	 1	 77	 1.5; % COW
	1754	 21.0	 0.0	 21.0	 -21.0	 1.01587	 100.0	 1	 42	 0.0; % PEL
	1754	 29.0	 0.0	 29.0	 -29.0	 1.01587	 100.0	 1	 58	 0.0; % NG
	1754	 13.5	 0.0	 14.0	 -14.0	 1.01587	 100.0	 1	 27	 0.0; % NG
	898	 21.0	 0.0	 21.0	 -21.0	 1.00132	 100.0	 1	 42	 0.0; % PEL
	898	 16.63	 0.0	 16.0	 -16.0	 1.00132	 100.0	 1	 31	 2.26; % PEL
	120	 119.75	 0.0	 119.0	 -119.0	 1.00257	 100.0	 1	 238	 1.5; % NG
	549	 95.75	 0.0	 95.0	 -95.0	 1.01587	 100.0	 1	 189	 2.5; % PEL
	77	 60.175	 0.0	 59.0	 -59.0	 1.00272	 100.0	 1	 118	 2.35; % NG
	124	 -3.5	 0.0	 1.2	 -1.2	 1.00133	 100.0	 1	 0	 -7.0; % SYNC
	124	 -3.5	 0.0	 1.2	 -1.2	 1.00133	 100.0	 1	 0	 -7.0; % SYNC
	552	 60.05	 0.0	 84.0	 -84.0	 1.01587	 100.0	 1	 118	 2.1; % PEL
	1858	 40.98	 0.0	 41.0	 -41.0	 0.94444	 100.0	 1	 81	 0.96; % NG
	134	 40.75	 0.0	 40.0	 -40.0	 1.02333	 100.0	 1	 79	 2.5; % PEL
	1204	 35.1	 0.0	 33.0	 -33.0	 1.00031	 100.0	 1	 66	 4.2; % PEL
	1204	 39.6	 0.0	 38.0	 -38.0	 1.00031	 100.0	 1	 75	 4.2; % NG
...
];

%% generator cost data
%	2	startup	shutdown	n	c(n-1)	...	c0
mpc.gencost = [
	2	 0.0	 0.0	 3	   0.000000	 100.986309	   0.000000; % NG
	2	 0.0	 0.0	 3	   0.000000	 126.418079	   0.000000; % PEL
	2	 0.0	 0.0	 3	   0.000000	  40.731394	   0.000000; % NG
	2	 0.0	 0.0	 3	   0.000000	  40.126035	   0.000000; % NG
	2	 0.0	 0.0	 3	   0.000000	  14.340287	   0.000000; % PEL
	2	 0.0	 0.0	 3	   0.000000	  40.157194	   0.000000; % NG
	2	 0.0	 0.0	 3	   0.000000	 117.418605	   0.000000; % PEL
	2	 0.0	 0.0	 3	   0.000000	  33.635175	   0.000000; % NG
	2	 0.0	 0.0	 3	   0.000000	  31.477929	   0.000000; % PEL
	2	 0.0	 0.0	 3	   0.000000	  98.758944	   0.000000; % NG
	2	 0.0	 0.0	 3	   0.000000	  40.818052	   0.000000; % NG
	2	 0.0	 0.0	 3	   0.000000	 121.333846	   0.000000; % PEL
	2	 0.0	 0.0	 3	   0.000000	  32.779420	   0.000000; % NG
	2	 0.0	 0.0	 3	   0.000000	  25.295674	   0.000000; % NG
	2	 0.0	 0.0	 3	   0.000000	  37.867529	   0.000000; % NG
	2	 0.0	 0.0	 3	   0.000000	  34.253779	   0.000000; % NG
	2	 0.0	 0.0	 3	   0.000000	  29.445017	   0.000000; % NG
	2	 0.0	 0.0	 3	   0.000000	  34.926541	   0.000000; % NG
	2	 0.0	 0.0	 3	   0.000000	  25.340211	   0.000000; % NG
	2	 0.0	 0.0	 3	   0.000000	  24.973259	   0.000000; % COW
	2	 0.0	 0.0	 3	   0.000000	  32.940298	   0.000000; % NG
	2	 0.0	 0.0	 3	   0.000000	  44.906810	   0.000000; % NG
	2	 0.0	 0.0	 3	   0.000000	  43.093264	   0.000000; % PEL
	2	 0.0	 0.0	 3	   0.000000	  16.543830	   0.000000; % NG
	2	 0.0	 0.0	 3	   0.000000	  31.291874	   0.000000; % COW
	2	 0.0	 0.0	 3	   0.000000	 106.235693	   0.000000; % PEL
	2	 0.0	 0.0	 3	   0.000000	  26.167192	   0.000000; % NG
	2	 0.0	 0.0	 3	   0.000000	 105.772694	   0.000000; % PEL
	2	 0.0	 0.0	 3	   0.000000	 109.990006	   0.000000; % COW
	2	 0.0	 0.0	 3	   0.000000	 102.341460	   0.000000; % NG
	2	 0.0	 0.0	 3	   0.000000	  23.505422	   0.000000; % PEL
	2	 0.0	 0.0	 3	   0.000000	 108.515642	   0.000000; % PEL
	2	 0.0	 0.0	 3	   0.000000	 103.166394	   0.000000; % PEL
	2	 0.0	 0.0	 3	   0.000000	 114.320443	   0.000000; % NG
	2	 0.0	 0.0	 3	   0.000000	  41.243026	   0.000000; % PEL
	2	 0.0	 0.0	 3	   0.000000	  43.237882	   0.000000; % NG
	2	 0.0	 0.0	 3	   0.000000	  30.171172	   0.000000; % PEL
	2	 0.0	 0.0	 3	   0.000000	  18.516359	   0.000000; % NG
	2	 0.0	 0.0	 3	   0.000000	  52.060991	   0.000000; % NG
	2	 0.0	 0.0	 3	   0.000000	  43.340325	   0.000000; % PEL
	2	 0.0	 0.0	 3	   0.000000	  30.769345	   0.000000; % PEL
	2	 0.0	 0.0	 3	   0.000000	  48.207211	   0.000000; % COW
	2	 0.0	 0.0	 3	   0.000000	 117.478299	   0.000000; % NG
	2	 0.0	 0.0	 3	   0.000000	  27.644824	   0.000000; % NG
	2	 0.0	 0.0	 3	   0.000000	 115.143841	   0.000000; % NG
	2	 0.0	 0.0	 3	   0.000000	  20.063488	   0.000000; % PEL
	2	 0.0	 0.0	 3	   0.000000	  44.182536	   0.000000; % NG
	2	 0.0	 0.0	 3	   0.000000	 122.548887	   0.000000; % PEL
	2	 0.0	 0.0	 3	   0.000000	  38.399391	   0.000000; % NG
	2	 0.0	 0.0	 3	   0.000000	  31.433671	   0.000000; % NG
	2	 0.0	 0.0	 3	   0.000000	 107.380824	   0.000000; % PEL
	2	 0.0	 0.0	 3	   0.000000	 107.912049	   0.000000; % PEL
	2	 0.0	 0.0	 3	   0.000000	  29.061768	   0.000000; % COW
	2	 0.0	 0.0	 3	   0.000000	  25.311460	   0.000000; % NG
	2	 0.0	 0.0	 3	   0.000000	  36.029694	   0.000000; % NG
	2	 0.0	 0.0	 3	   0.000000	  10.513096	   0.000000; % NG
	2	 0.0	 0.0	 3	   0.000000	  35.586535	   0.000000; % NG
	2	 0.0	 0.0	 3	   0.000000	  42.894607	   0.000000; % PEL
	2	 0.0	 0.0	 3	   0.000000	 124.367340	   0.000000; % PEL
	2	 0.0	 0.0	 3	   0.000000	  52.320279	   0.000000; % NG
	2	 0.0	 0.0	 3	   0.000000	  26.140314	   0.000000; % NG
	2	 0.0	 0.0	 3	   0.000000	 123.799005	   0.000000; % NG
	2	 0.0	 0.0	 3	   0.000000	 101.753605	   0.000000; % COW
	2	 0.0	 0.0	 3	   0.000000	  19.961544	   0.000000; % COW
	2	 0.0	 0.0	 3	   0.000000	 110.879704	   0.000000; % NG
	2	 0.0	 0.0	 3	   0.000000	  37.715142	   0.000000; % NG
	2	 0.0	 0.0	 3	   0.000000	  41.499876	   0.000000; % PEL
	2	 0.0	 0.0	 3	   0.000000	  28.650617	   0.000000; % NG
	2	 0.0	 0.0	 3	   0.000000	  46.596802	   0.000000; % NG
	2	 0.0	 0.0	 3	   0.000000	  31.909977	   0.000000; % NG
	2	 0.0	 0.0	 3	   0.000000	  12.435424	   0.000000; % NG
	2	 0.0	 0.0	 3	   0.000000	  19.250727	   0.000000; % PEL
	2	 0.0	 0.0	 3	   0.000000	  19.966272	   0.000000; % PEL
	2	 0.0	 0.0	 3	   0.000000	  45.089052	   0.000000; % PEL
	2	 0.0	 0.0	 3	   0.000000	  29.705389	   0.000000; % NG
	2	 0.0	 0.0	 3	   0.000000	  11.847894	   0.000000; % NG
	2	 0.0	 0.0	 3	   0.000000	  27.254106	   0.000000; % NG
	2	 0.0	 0.0	 3	   0.000000	  39.851280	   0.000000; % PEL
	2	 0.0	 0.0	 3	   0.000000	  22.104855	   0.000000; % PEL
	2	 0.0	 0.0	 3	   0.000000	  38.440906	   0.000000; % PEL
	2	 0.0	 0.0	 3	   0.000000	  29.870503	   0.000000; % COW
	2	 0.0	 0.0	 3	   0.000000	  99.615888	   0.000000; % NG
	2	 0.0	 0.0	 3	   0.000000	  37.192109	   0.000000; % NG
	2	 0.0	 0.0	 3	   0.000000	 109.748848	   0.000000; % NG
	2	 0.0	 0.0	 3	   0.000000	  36.935647	   0.000000; % PEL
	2	 0.0	 0.0	 3	   0.000000	  38.368275	   0.000000; % NG
	2	 0.0	 0.0	 3	   0.000000	  34.812461	   0.000000; % NG
	2	 0.0	 0.0	 3	   0.000000	 122.571958	   0.000000; % PEL
	2	 0.0	 0.0	 3	   0.000000	 124.160569	   0.000000; % PEL
	2	 0.0	 0.0	 3	   0.000000	 101.716137	   0.000000; % PEL
	2	 0.0	 0.0	 3	   0.000000	  30.257074	   0.000000; % PEL
	2	 0.0	 0.0	 3	   0.000000	 121.460880	   0.000000; % PEL
	2	 0.0	 0.0	 3	   0.000000	 103.089036	   0.000000; % PEL
	2	 0.0	 0.0	 3	   0.000000	  43.477694	   0.000000; % NG
	2	 0.0	 0.0	 3	   0.000000	 112.383190	   0.000000; % NG
	2	 0.0	 0.0	 3	   0.000000	  38.821409	   0.000000; % NG
	2	 0.0	 0.0	 3	   0.000000	  28.695354	   0.000000; % NG
	2	 0.0	 0.0	 3	   0.000000	  43.888638	   0.000000; % NG
	2	 0.0	 0.0	 3	   0.000000	  40.684211	   0.000000; % NG
	2	 0.0	 0.0	 3	   0.000000	  14.839319	   0.000000; % PEL
	2	 0.0	 0.0	 3	   0.000000	 107.083296	   0.000000; % PEL
	2	 0.0	 0.0	 3	   0.000000	 109.526673	   0.000000; % PEL
	2	 0.0	 0.0	 3	   0.000000	  48.835643	   0.000000; % PEL
	2	 0.0	 0.0	 3	   0.000000	  63.494909	   0.000000; % NG
	2	 0.0	 0.0	 3	   0.000000	 114.994004	   0.000000; % COW
	2	 0.0	 0.0	 3	   0.000000	 121.183185	   0.000000; % COW
	2	 0.0	 0.0	 3	   0.000000	 121.344595	   0.000000; % PEL
	2	 0.0	 0.0	 3	   0.000000	  27.691496	   0.000000; % NG
	2	 0.0	 0.0	 3	   0.000000	  99.721503	   0.000000; % PEL
	2	 0.0	 0.0	 3	   0.000000	  20.788956	   0.000000; % NG
	2	 0.0	 0.0	 3	   0.000000	  20.181650	   0.000000; % PEL
	2	 0.0	 0.0	 3	   0.000000	 110.443975	   0.000000; % COW
	2	 0.0	 0.0	 3	   0.000000	  33.244939	   0.000000; % PEL
	2	 0.0	 0.0	 3	   0.000000	  22.602296	   0.000000; % NG
	2	 0.0	 0.0	 3	   0.000000	  34.589169	   0.000000; % COW
	2	 0.0	 0.0	 3	   0.000000	  28.113517	   0.000000; % PEL
	2	 0.0	 0.0	 3	   0.000000	  19.089435	   0.000000; % PEL
	2	 0.0	 0.0	 3	   0.000000	  91.627137	   0.000000; % COW
	2	 0.0	 0.0	 3	   0.000000	 110.180830	   0.000000; % PEL
	2	 0.0	 0.0	 3	   0.000000	  48.928989	   0.000000; % PEL
	2	 0.0	 0.0	 3	   0.000000	  43.284540	   0.000000; % NG
	2	 0.0	 0.0	 3	   0.000000	  26.075438	   0.000000; % PEL
	2	 0.0	 0.0	 3	   0.000000	 102.387833	   0.000000; % PEL
	2	 0.0	 0.0	 3	   0.000000	  28.628779	   0.000000; % NG
	2	 0.0	 0.0	 3	   0.000000	  30.501955	   0.000000; % PEL
	2	 0.0	 0.0	 3	   0.000000	  36.562901	   0.000000; % NG
	2	 0.0	 0.0	 3	   0.000000	  50.484077	   0.000000; % NG
	2	 0.0	 0.0	 3	   0.000000	  33.937162	   0.000000; % NG
	2	 0.0	 0.0	 3	   0.000000	  33.889690	   0.000000; % NG
	2	 0.0	 0.0	 3	   0.000000	  96.773902	   0.000000; % NG
	2	 0.0	 0.0	 3	   0.000000	 103.201864	   0.000000; % COW
	2	 0.0	 0.0	 3	   0.000000	 108.810518	   0.000000; % NG
	2	 0.0	 0.0	 3	   0.000000	 120.646300	   0.000000; % NG
	2	 0.0	 0.0	 3	   0.000000	 125.061063	   0.000000; % PEL
	2	 0.0	 0.0	 3	   0.000000	  47.152033	   0.000000; % PEL
	2	 0.0	 0.0	 3	   0.000000	  27.556339	   0.000000; % PEL
	2	 0.0	 0.0	 3	   0.000000	  33.296792	   0.000000; % PEL
	2	 0.0	 0.0	 3	   0.000000	 108.178986	   0.000000; % PEL
	2	 0.0	 0.0	 3	   0.000000	  26.131836	   0.000000; % COW
	2	 0.0	 0.0	 3	   0.000000	 118.557785	   0.000000; % NG
	2	 0.0	 0.0	 3	   0.000000	 142.759395	   0.000000; % PEL
	2	 0.0	 0.0	 3	   0.000000	  23.901832	   0.000000; % NG
	2	 0.0	 0.0	 3	   0.000000	 116.480176	   0.000000; % COW
	2	 0.0	 0.0	 3	   0.000000	  50.619924	   0.000000; % NG
	2	 0.0	 0.0	 3	   0.000000	  25.844586	   0.000000; % PEL
	2	 0.0	 0.0	 3	   0.000000	  36.816217	   0.000000; % NG
	2	 0.0	 0.0	 3	   0.000000	  35.602479	   0.000000; % COW
	2	 0.0	 0.0	 3	   0.000000	  97.533932	   0.000000; % PEL
	2	 0.0	 0.0	 3	   0.000000	  13.444523	   0.000000; % PEL
	2	 0.0	 0.0	 3	   0.000000	  23.036512	   0.000000; % PEL
	2	 0.0	 0.0	 3	   0.000000	 113.583074	   0.000000; % PEL
	2	 0.0	 0.0	 3	   0.000000	  29.383994	   0.000000; % PEL
	2	 0.0	 0.0	 3	   0.000000	 126.780352	   0.000000; % NG
	2	 0.0	 0.0	 3	   0.000000	 126.111267	   0.000000; % NG
	2	 0.0	 0.0	 3	   0.000000	  42.883940	   0.000000; % NG
	2	 0.0	 0.0	 3	   0.000000	  30.122404	   0.000000; % NG
	2	 0.0	 0.0	 3	   0.000000	  40.746253	   0.000000; % PEL
	2	 0.0	 0.0	 3	   0.000000	  34.735244	   0.000000; % NG
	2	 0.0	 0.0	 3	   0.000000	 107.971493	   0.000000; % PEL
	2	 0.0	 0.0	 3	   0.000000	  29.759241	   0.000000; % NG
	2	 0.0	 0.0	 3	   0.000000	 114.031202	   0.000000; % NG
	2	 0.0	 0.0	 3	   0.000000	  38.530524	   0.000000; % NG
	2	 0.0	 0.0	 3	   0.000000	  23.562956	   0.000000; % PEL
	2	 0.0	 0.0	 3	   0.000000	  29.663453	   0.000000; % PEL
	2	 0.0	 0.0	 3	   0.000000	  52.598730	   0.000000; % NG
	2	 0.0	 0.0	 3	   0.000000	  40.774356	   0.000000; % NG
	2	 0.0	 0.0	 3	   0.000000	  22.799318	   0.000000; % NG
	2	 0.0	 0.0	 3	   0.000000	  50.901715	   0.000000; % PEL
	2	 0.0	 0.0	 3	   0.000000	  25.100556	   0.000000; % PEL
	2	 0.0	 0.0	 3	   0.000000	  96.041267	   0.000000; % NG
	2	 0.0	 0.0	 3	   0.000000	  21.274763	   0.000000; % NG
	2	 0.0	 0.0	 3	   0.000000	  63.988407	   0.000000; % COW
	2	 0.0	 0.0	 3	   0.000000	   6.768817	   0.000000; % NG
	2	 0.0	 0.0	 3	   0.000000	  20.342247	   0.000000; % NG
	2	 0.0	 0.0	 3	   0.000000	  35.857844	   0.000000; % NG
	2	 0.0	 0.0	 3	   0.000000	  25.249181	   0.000000; % NG
	2	 0.0	 0.0	 3	   0.000000	  32.143849	   0.000000; % NG
	2	 0.0	 0.0	 3	   0.000000	 127.920347	   0.000000; % NG
	2	 0.0	 0.0	 3	   0.000000	 123.840875	   0.000000; % NG
	2	 0.0	 0.0	 3	   0.000000	 116.032186	   0.000000; % NG
	2	 0.0	 0.0	 3	   0.000000	  43.187520	   0.000000; % PEL
	2	 0.0	 0.0	 3	   0.000000	  41.584963	   0.000000; % NG
	2	 0.0	 0.0	 3	   0.000000	  28.901507	   0.000000; % NG
	2	 0.0	 0.0	 3	   0.000000	  19.975670	   0.000000; % COW
	2	 0.0	 0.0	 3	   0.000000	  22.195377	   0.000000; % COW
	2	 0.0	 0.0	 3	   0.000000	 109.180191	   0.000000; % PEL
	2	 0.0	 0.0	 3	   0.000000	 122.670246	   0.000000; % NG
	2	 0.0	 0.0	 3	   0.000000	  99.018768	   0.000000; % NG
	2	 0.0	 0.0	 3	   0.000000	 110.665173	   0.000000; % PEL
	2	 0.0	 0.0	 3	   0.000000	  46.104826	   0.000000; % PEL
	2	 0.0	 0.0	 3	   0.000000	  39.544082	   0.000000; % NG
	2	 0.0	 0.0	 3	   0.000000	  48.645314	   0.000000; % PEL
	2	 0.0	 0.0	 3	   0.000000	 104.850363	   0.000000; % NG
	2	 0.0	 0.0	 3	   0.000000	   0.000000	   0.000000; % SYNC
	2	 0.0	 0.0	 3	   0.000000	   0.000000	   0.000000; % SYNC
	2	 0.0	 0.0	 3	   0.000000	  25.705133	   0.000000; % PEL
	2	 0.0	 0.0	 3	   0.000000	  56.459884	   0.000000; % NG
	2	 0.0	 0.0	 3	   0.000000	  16.383320	   0.000000; % PEL
	2	 0.0	 0.0	 3	   0.000000	  37.400378	   0.000000; % PEL
	2	 0.0	 0.0	 3	   0.000000	  53.728787	   0.000000; % NG
...
];

%% branch data
%	fbus	tbus	r	x	b	rateA	rateB	rateC	ratio	angle	status	angmin	angmax
mpc.branch = [
	639	 1	 0.005799	 0.010615	 0.0075	 2441.0	 2441.0	 2441.0	 0.0	 0.0	 1	 -30.0	 30.0;
	2771	 2	 0.002607	 0.017462	 0.0324	 540.0	 540.0	 540.0	 0.0	 0.0	 1	 -30.0	 30.0;
	2575	 3	 2.1e-05	 0.000125	 0.1386	 737.0	 737.0	 737.0	 0.0	 0.0	 1	 -30.0	 30.0;
	875	 3	 0.000145	 0.001877	 0.0635	 2487.0	 2487.0	 2487.0	 0.0	 0.0	 1	 -30.0	 30.0;
	1710	 3	 0.000319	 0.003234	 0.0838	 1841.0	 1841.0	 1841.0	 0.0	 0.0	 1	 -30.0	 30.0;
	46	 3	 2.1e-05	 0.000125	 0.1386	 737.0	 737.0	 737.0	 0.0	 0.0	 1	 -30.0	 30.0;
	1073	 4	 0.037541	 0.100529	 0.0011	 284.0	 284.0	 284.0	 0.0	 0.0	 1	 -30.0	 30.0;
	1533	 4	 0.090199	 0.211388	 0.0023	 133.0	 133.0	 133.0	 0.0	 0.0	 1	 -30.0	 30.0;
	1658	 4	 0.09801	 0.267574	 0.0	 107.0	 107.0	 107.0	 0.0	 0.0	 1	 -30.0	 30.0;
	1370	 5	 0.009383	 0.019753	 0.0	 1194.0	 1194.0	 1194.0	 0.0	 0.0	 1	 -30.0	 30.0;
	1370	 6	 0.001975	 0.004444	 0.0	 5369.0	 5369.0	 5369.0	 0.0	 0.0	 1	 -30.0	 30.0;
	199	 7	 0.006163	 0.041067	 0.0759	 446.0	 446.0	 446.0	 0.0	 0.0	 1	 -30.0	 30.0;
	880	 7	 0.000652	 0.004369	 0.0081	 558.0	 558.0	 558.0	 0.0	 0.0	 1	 -30.0	 30.0;
	1061	 8	 0.067019	 0.137566	 0.0037	 193.0	 193.0	 193.0	 0.0	 0.0	 1	 -30.0	 30.0;
	1223	 8	 0.032754	 0.088939	 0.0039	 312.0	 312.0	 312.0	 0.0	 0.0	 1	 -30.0	 30.0;
	1223	 8	 0.030184	 0.080096	 0.0053	 345.0	 345.0	 345.0	 0.0	 0.0	 1	 -30.0	 30.0;
	1371	 10	 0.009733	 0.034089	 0.0185	 944.0	 944.0	 944.0	 0.0	 0.0	 1	 -30.0	 30.0;
	147	 11	 0.000277	 0.002015	 0.003	 288.0	 288.0	 288.0	 0.0	 0.0	 1	 -30.0	 30.0;
	387	 2571	 0.00881	 0.033995	 0.0607	 289.0	 289.0	 289.0	 0.0	 0.0	 1	 -30.0	 30.0;
	437	 2571	 0.004642	 0.019832	 0.0354	 255.0	 255.0	 255.0	 0.0	 0.0	 1	 -30.0	 30.0;
	955	 11	 0.008861	 0.03506	 0.0623	 288.0	 288.0	 288.0	 0.0	 0.0	 1	 -30.0	 30.0;
	991	 11	 0.006993	 0.032869	 0.0557	 255.0	 255.0	 255.0	 0.0	 0.0	 1	 -30.0	 30.0;
	1774	 2571	 0.002173	 0.008731	 0.0152	 3441.0	 3441.0	 3441.0	 0.0	 0.0	 1	 -30.0	 30.0;
	1817	 11	 0.00077	 0.003121	 0.0051	 9629.0	 9629.0	 9629.0	 0.0	 0.0	 1	 -30.0	 30.0;
	2092	 2571	 0.004109	 0.016138	 0.0284	 288.0	 288.0	 288.0	 0.0	 0.0	 1	 -30.0	 30.0;
	2591	 12	 8.3e-05	 0.000907	 0.0202	 1034.0	 1034.0	 1034.0	 0.0	 0.0	 1	 -30.0	 30.0;
	419	 12	 0.000552	 0.006726	 0.0939	 1786.0	 1786.0	 1786.0	 0.0	 0.0	 1	 -30.0	 30.0;
	808	 12	 0.000512	 0.008012	 0.2455	 2462.0	 2462.0	 2462.0	 0.0	 0.0	 1	 -30.0	 30.0;
	1158	 12	 0.001107	 0.00918	 0.1906	 1644.0	 1644.0	 1644.0	 0.0	 0.0	 1	 -30.0	 30.0;
	148	 2572	 6.2e-05	 0.000741	 0.0173	 1095.0	 1095.0	 1095.0	 0.0	 0.0	 1	 -30.0	 30.0;
	808	 12	 0.000512	 0.008019	 0.2455	 2462.0	 2462.0	 2462.0	 0.0	 0.0	 1	 -30.0	 30.0;
	808	 2572	 0.001153	 0.013123	 0.1841	 1433.0	 1433.0	 1433.0	 0.0	 0.0	 1	 -30.0	 30.0;
	167	 13	 0.000158	 0.000672	 0.0719	 331.0	 331.0	 331.0	 0.0	 0.0	 1	 -30.0	 30.0;
	1463	 13	 4.5e-05	 8.9e-05	 0.002	 268.0	 268.0	 268.0	 0.0	 0.0	 1	 -30.0	 30.0;
	820	 14	 0.033258	 0.090955	 0.001	 305.0	 305.0	 305.0	 0.0	 0.0	 1	 -30.0	 30.0;
	465	 15	 0.071303	 0.180902	 0.0021	 152.0	 152.0	 152.0	 0.0	 0.0	 1	 -30.0	 30.0;
	878	 15	 0.071554	 0.18191	 0.0021	 152.0	 152.0	 152.0	 0.0	 0.0	 1	 -30.0	 30.0;
	2664	 16	 0.00478	 0.028622	 0.0547	 455.0	 455.0	 455.0	 0.0	 0.0	 1	 -30.0	 30.0;
	451	 16	 0.00478	 0.028583	 0.0547	 455.0	 455.0	 455.0	 0.0	 0.0	 1	 -30.0	 30.0;
	151	 17	 0.000257	 0.000514	 0.0294	 53862.0	 53862.0	 53862.0	 0.0	 0.0	 1	 -30.0	 30.0;
	987	 18	 0.000257	 0.002153	 0.2147	 452.0	 452.0	 452.0	 0.0	 0.0	 1	 -30.0	 30.0;
	1264	 18	 0.000277	 0.000869	 0.0931	 481.0	 481.0	 481.0	 0.0	 0.0	 1	 -30.0	 30.0;
	1903	 19	 0.000756	 0.00252	 0.0	 11716.0	 11716.0	 11716.0	 0.0	 0.0	 1	 -30.0	 30.0;
	1247	 20	 0.000237	 0.00083	 0.1863	 268.0	 268.0	 268.0	 0.0	 0.0	 1	 -30.0	 30.0;
	1301	 20	 0.000178	 0.000612	 0.1377	 268.0	 268.0	 268.0	 0.0	 0.0	 1	 -30.0	 30.0;
	59	 21	 0.002568	 0.011753	 0.0203	 424.0	 424.0	 424.0	 0.0	 0.0	 1	 -30.0	 30.0;
	1908	 21	 0.002568	 0.011615	 0.0228	 290.0	 290.0	 290.0	 0.0	 0.0	 1	 -30.0	 30.0;
	591	 22	 0.102293	 0.226757	 0.0025	 122.0	 122.0	 122.0	 0.0	 0.0	 1	 -30.0	 30.0;
	855	 22	 0.177551	 0.405291	 0.0046	 68.0	 68.0	 68.0	 0.0	 0.0	 1	 -30.0	 30.0;
	1199	 22	 0.088264	 0.161566	 0.0017	 163.0	 163.0	 163.0	 0.0	 0.0	 1	 -30.0	 30.0;
	820	 23	 0.043336	 0.11867	 0.001	 234.0	 234.0	 234.0	 0.0	 0.0	 1	 -30.0	 30.0;
	1059	 23	 0.067775	 0.139834	 0.001	 191.0	 191.0	 191.0	 0.0	 0.0	 1	 -30.0	 30.0;
	1691	 23	 0.047367	 0.16125	 0.0021	 177.0	 177.0	 177.0	 0.0	 0.0	 1	 -30.0	 30.0;
	1922	 23	 0.004031	 0.016629	 0.001	 1726.0	 1726.0	 1726.0	 0.0	 0.0	 1	 -30.0	 30.0;
	1377	 24	 9.9e-05	 0.00077	 0.078	 379.0	 379.0	 379.0	 0.0	 0.0	 1	 -30.0	 30.0;
	1377	 2573	 9.9e-05	 0.00077	 0.077	 379.0	 379.0	 379.0	 0.0	 0.0	 1	 -30.0	 30.0;
	1908	 25	 0.000514	 0.003437	 0.0061	 290.0	 290.0	 290.0	 0.0	 0.0	 1	 -30.0	 30.0;
	1914	 25	 0.005476	 0.036879	 0.1255	 522.0	 522.0	 522.0	 0.0	 0.0	 1	 -30.0	 30.0;
	59	 25	 0.000514	 0.003457	 0.0061	 418.0	 418.0	 418.0	 0.0	 0.0	 1	 -30.0	 30.0;
	1138	 26	 0.003477	 0.01118	 0.0187	 304.0	 304.0	 304.0	 0.0	 0.0	 1	 -30.0	 30.0;
	1409	 26	 0.000612	 0.003121	 0.0152	 270.0	 270.0	 270.0	 0.0	 0.0	 1	 -30.0	 30.0;
	2755	 27	 0.013857	 0.035525	 0.0004	 775.0	 775.0	 775.0	 0.0	 0.0	 1	 -30.0	 30.0;
	1514	 28	 2.4e-05	 0.000144	 0.0213	 701.0	 701.0	 701.0	 0.0	 0.0	 1	 -30.0	 30.0;
	1514	 2574	 7.1e-05	 0.000162	 0.0162	 251.0	 251.0	 251.0	 0.0	 0.0	 1	 -30.0	 30.0;
	249	 29	 0.068027	 0.173091	 0.002	 159.0	 159.0	 159.0	 0.0	 0.0	 1	 -30.0	 30.0;
	296	 29	 0.027211	 0.068783	 0.001	 400.0	 400.0	 400.0	 0.0	 0.0	 1	 -30.0	 30.0;
	776	 29	 0.03099	 0.202822	 0.002	 146.0	 146.0	 146.0	 0.0	 0.0	 1	 -30.0	 30.0;
	1274	 30	 0.000257	 0.001165	 0.002	 405.0	 405.0	 405.0	 0.0	 0.0	 1	 -30.0	 30.0;
	1906	 31	 0.047317	 0.131595	 0.0015	 215.0	 215.0	 215.0	 0.0	 0.0	 1	 -30.0	 30.0;
	2686	 32	 0.075838	 0.224742	 0.0027	 125.0	 125.0	 125.0	 0.0	 0.0	 1	 -30.0	 30.0;
	648	 32	 0.028471	 0.089695	 0.001	 314.0	 314.0	 314.0	 0.0	 0.0	 1	 -30.0	 30.0;
	1337	 32	 0.080373	 0.255732	 0.003	 111.0	 111.0	 111.0	 0.0	 0.0	 1	 -30.0	 30.0;
	2050	 32	 0.000252	 0.000504	 0.0	 52398.0	 52398.0	 52398.0	 0.0	 0.0	 1	 -30.0	 30.0;
	1907	 33	 0.000444	 0.001136	 0.0	 21404.0	 21404.0	 21404.0	 0.0	 0.0	 1	 -30.0	 30.0;
	1370	 34	 0.057284	 0.130864	 0.0	 183.0	 183.0	 183.0	 0.0	 0.0	 1	 -30.0	 30.0;
	242	 35	 0.054749	 0.157445	 0.0027	 178.0	 178.0	 178.0	 0.0	 0.0	 1	 -30.0	 30.0;
	1507	 35	 0.038549	 0.103049	 0.0012	 269.0	 269.0	 269.0	 0.0	 0.0	 1	 -30.0	 30.0;
	2117	 35	 0.012598	 0.052406	 0.0006	 548.0	 548.0	 548.0	 0.0	 0.0	 1	 -30.0	 30.0;
	800	 36	 0.006914	 0.020741	 0.0	 1195.0	 1195.0	 1195.0	 0.0	 0.0	 1	 -30.0	 30.0;
	712	 37	 0.032124	 0.082892	 0.003	 333.0	 333.0	 333.0	 0.0	 0.0	 1	 -30.0	 30.0;
	1655	 37	 0.025573	 0.09869	 0.0012	 290.0	 290.0	 290.0	 0.0	 0.0	 1	 -30.0	 30.0;
	564	 38	 0.001512	 0.005291	 0.0064	 5495.0	 5495.0	 5495.0	 0.0	 0.0	 1	 -30.0	 30.0;
	637	 39	 0.005709	 0.037926	 0.0688	 492.0	 492.0	 492.0	 0.0	 0.0	 1	 -30.0	 30.0;
	2032	 39	 0.001758	 0.011654	 0.0208	 492.0	 492.0	 492.0	 0.0	 0.0	 1	 -30.0	 30.0;
	2585	 40	 0.001383	 0.009462	 0.0172	 463.0	 463.0	 463.0	 0.0	 0.0	 1	 -30.0	 30.0;
	593	 40	 0.00156	 0.006933	 0.0121	 432.0	 432.0	 432.0	 0.0	 0.0	 1	 -30.0	 30.0;
	788	 40	 0.006376	 0.028733	 0.0506	 432.0	 432.0	 432.0	 0.0	 0.0	 1	 -30.0	 30.0;
	1291	 40	 0.00158	 0.010627	 0.0192	 481.0	 481.0	 481.0	 0.0	 0.0	 1	 -30.0	 30.0;
	1108	 41	 0.001086	 0.003536	 0.3766	 506.0	 506.0	 506.0	 0.0	 0.0	 1	 -30.0	 30.0;
	1108	 41	 0.001086	 0.003536	 0.3766	 506.0	 506.0	 506.0	 0.0	 0.0	 1	 -30.0	 30.0;
	235	 42	 0.04059	 0.110708	 0.0013	 251.0	 251.0	 251.0	 0.0	 0.0	 1	 -30.0	 30.0;
	248	 42	 0.073646	 0.225598	 0.0087	 125.0	 125.0	 125.0	 0.0	 0.0	 1	 -30.0	 30.0;
	285	 42	 0.02066	 0.088687	 0.0021	 325.0	 325.0	 325.0	 0.0	 0.0	 1	 -30.0	 30.0;
	1933	 42	 0.019904	 0.08516	 0.001	 338.0	 338.0	 338.0	 0.0	 0.0	 1	 -30.0	 30.0;
	1935	 42	 0.014361	 0.068027	 0.0035	 425.0	 425.0	 425.0	 0.0	 0.0	 1	 -30.0	 30.0;
	1770	 42	 0.059209	 0.150164	 0.0021	 183.0	 183.0	 183.0	 0.0	 0.0	 1	 -30.0	 30.0;
	183	 43	 0.004741	 0.020385	 0.0334	 1479.0	 1479.0	 1479.0	 0.0	 0.0	 1	 -30.0	 30.0;
	2006	 43	 0.009027	 0.048869	 0.084	 351.0	 351.0	 351.0	 0.0	 0.0	 1	 -30.0	 30.0;
	2036	 43	 0.003516	 0.016257	 0.0273	 311.0	 311.0	 311.0	 0.0	 0.0	 1	 -30.0	 30.0;
	265	 44	 0.059461	 0.163265	 0.0018	 170.0	 170.0	 170.0	 0.0	 0.0	 1	 -30.0	 30.0;
	1652	 44	 0.146384	 0.373394	 0.0051	 74.0	 74.0	 74.0	 0.0	 0.0	 1	 -30.0	 30.0;
	389	 45	 0.000514	 0.003417	 0.0278	 452.0	 452.0	 452.0	 0.0	 0.0	 1	 -30.0	 30.0;
	408	 45	 0.001084	 0.007198	 0.0132	 448.0	 448.0	 448.0	 0.0	 0.0	 1	 -30.0	 30.0;
	1955	 45	 0.000523	 0.002436	 0.0167	 348.0	 348.0	 348.0	 0.0	 0.0	 1	 -30.0	 30.0;
	389	 45	 0.000514	 0.003457	 0.0203	 356.0	 356.0	 356.0	 0.0	 0.0	 1	 -30.0	 30.0;
	408	 45	 0.001086	 0.007249	 0.0132	 540.0	 540.0	 540.0	 0.0	 0.0	 1	 -30.0	 30.0;
	1954	 45	 0.000553	 0.002469	 0.0157	 405.0	 405.0	 405.0	 0.0	 0.0	 1	 -30.0	 30.0;
	408	 45	 0.001086	 0.007269	 0.0132	 540.0	 540.0	 540.0	 0.0	 0.0	 1	 -30.0	 30.0;
	380	 47	 0.016125	 0.068279	 0.0081	 426.0	 426.0	 426.0	 0.0	 0.0	 1	 -30.0	 30.0;
	1699	 47	 0.059209	 0.150416	 0.0021	 184.0	 184.0	 184.0	 0.0	 0.0	 1	 -30.0	 30.0;
	380	 47	 0.016125	 0.068279	 0.0081	 426.0	 426.0	 426.0	 0.0	 0.0	 1	 -30.0	 30.0;
	1610	 48	 0.102293	 0.245906	 0.0027	 112.0	 112.0	 112.0	 0.0	 0.0	 1	 -30.0	 30.0;
	2120	 48	 0.036533	 0.088435	 0.001	 312.0	 312.0	 312.0	 0.0	 0.0	 1	 -30.0	 30.0;
	1006	 49	 0.019148	 0.081381	 0.0012	 354.0	 354.0	 354.0	 0.0	 0.0	 1	 -30.0	 30.0;
	1585	 49	 0.02318	 0.04258	 0.0006	 612.0	 612.0	 612.0	 0.0	 0.0	 1	 -30.0	 30.0;
	1972	 49	 0.002268	 0.022424	 0.0002	 1314.0	 1314.0	 1314.0	 0.0	 0.0	 1	 -30.0	 30.0;
	2121	 2576	 0.012094	 0.030486	 0.0004	 901.0	 901.0	 901.0	 0.0	 0.0	 1	 -30.0	 30.0;
	1006	 2576	 0.03351	 0.088435	 0.001	 313.0	 313.0	 313.0	 0.0	 0.0	 1	 -30.0	 30.0;
	1971	 2576	 0.00252	 0.02066	 0.0002	 1419.0	 1419.0	 1419.0	 0.0	 0.0	 1	 -30.0	 30.0;
	1103	 50	 0.001837	 0.011694	 0.0759	 467.0	 467.0	 467.0	 0.0	 0.0	 1	 -30.0	 30.0;
	1256	 50	 0.001067	 0.007131	 0.0132	 413.0	 413.0	 413.0	 0.0	 0.0	 1	 -30.0	 30.0;
	1709	 50	 0.001284	 0.008593	 0.0152	 541.0	 541.0	 541.0	 0.0	 0.0	 1	 -30.0	 30.0;
	2895	 50	 0.001284	 0.008593	 0.0162	 541.0	 541.0	 541.0	 0.0	 0.0	 1	 -30.0	 30.0;
	2895	 50	 0.001284	 0.008533	 0.0162	 541.0	 541.0	 541.0	 0.0	 0.0	 1	 -30.0	 30.0;
	2621	 51	 0.000494	 0.000928	 0.0699	 29203.0	 29203.0	 29203.0	 0.0	 0.0	 1	 -30.0	 30.0;
	434	 51	 0.000184	 0.00159	 0.1661	 422.0	 422.0	 422.0	 0.0	 0.0	 1	 -30.0	 30.0;
	1497	 51	 0.000198	 0.001711	 0.1711	 385.0	 385.0	 385.0	 0.0	 0.0	 1	 -30.0	 30.0;
	1522	 51	 0.000751	 0.003358	 0.1534	 385.0	 385.0	 385.0	 0.0	 0.0	 1	 -30.0	 30.0;
	450	 52	 0.000178	 0.001047	 0.1499	 452.0	 452.0	 452.0	 0.0	 0.0	 1	 -30.0	 30.0;
	651	 2942	 0.000119	 0.000474	 0.0688	 452.0	 452.0	 452.0	 0.0	 0.0	 1	 -30.0	 30.0;
	1247	 52	 0.000316	 0.002232	 0.2774	 452.0	 452.0	 452.0	 0.0	 0.0	 1	 -30.0	 30.0;
	2603	 53	 0.047115	 0.108088	 0.0031	 251.0	 251.0	 251.0	 0.0	 0.0	 1	 -30.0	 30.0;
	1126	 53	 0.036281	 0.154195	 0.0037	 187.0	 187.0	 187.0	 0.0	 0.0	 1	 -30.0	 30.0;
	1686	 54	 0.037227	 0.106836	 0.0328	 270.0	 270.0	 270.0	 0.0	 0.0	 1	 -30.0	 30.0;
	1929	 54	 0.006089	 0.020756	 0.0067	 1408.0	 1408.0	 1408.0	 0.0	 0.0	 1	 -30.0	 30.0;
	1109	 55	 0.000729	 0.005118	 0.0933	 389.0	 389.0	 389.0	 0.0	 0.0	 1	 -30.0	 30.0;
	1109	 55	 0.000755	 0.005235	 0.0909	 419.0	 419.0	 419.0	 0.0	 0.0	 1	 -30.0	 30.0;
	321	 56	 0.001787	 0.01946	 0.4214	 1579.0	 1579.0	 1579.0	 0.0	 0.0	 1	 -30.0	 30.0;
	638	 57	 0.001719	 0.00877	 0.0157	 321.0	 321.0	 321.0	 0.0	 0.0	 1	 -30.0	 30.0;
	1538	 57	 0.009165	 0.04318	 0.077	 321.0	 321.0	 321.0	 0.0	 0.0	 1	 -30.0	 30.0;
	190	 59	 0.004879	 0.032454	 0.0602	 487.0	 487.0	 487.0	 0.0	 0.0	 1	 -30.0	 30.0;
	258	 59	 0.006341	 0.042746	 0.0785	 418.0	 418.0	 418.0	 0.0	 0.0	 1	 -30.0	 30.0;
	284	 59	 0.006914	 0.031249	 0.0547	 327.0	 327.0	 327.0	 0.0	 0.0	 1	 -30.0	 30.0;
	396	 60	 0.000582	 0.007652	 0.2643	 2487.0	 2487.0	 2487.0	 0.0	 0.0	 1	 -30.0	 30.0;
	1001	 60	 0.001648	 0.021634	 0.748	 1470.0	 1470.0	 1470.0	 0.0	 0.0	 1	 -30.0	 30.0;
	1240	 60	 0.000838	 0.014301	 0.5198	 2229.0	 2229.0	 2229.0	 0.0	 0.0	 1	 -30.0	 30.0;
	2897	 60	 0.001163	 0.015312	 0.5285	 2077.0	 2077.0	 2077.0	 0.0	 0.0	 1	 -30.0	 30.0;
	396	 60	 0.000575	 0.007576	 0.2614	 2487.0	 2487.0	 2487.0	 0.0	 0.0	 1	 -30.0	 30.0;
	1001	 60	 0.001646	 0.021633	 0.7479	 1470.0	 1470.0	 1470.0	 0.0	 0.0	 1	 -30.0	 30.0;
	1240	 60	 0.000838	 0.014287	 0.5198	 2231.0	 2231.0	 2231.0	 0.0	 0.0	 1	 -30.0	 30.0;
	1723	 60	 0.00117	 0.015339	 0.5285	 2074.0	 2074.0	 2074.0	 0.0	 0.0	 1	 -30.0	 30.0;
	2897	 60	 0.001821	 0.017874	 0.4318	 1382.0	 1382.0	 1382.0	 0.0	 0.0	 1	 -30.0	 30.0;
	182	 61	 0.003023	 0.01159	 0.0002	 2466.0	 2466.0	 2466.0	 0.0	 0.0	 1	 -30.0	 30.0;
	1589	 63	 0.070043	 0.190728	 0.0021	 146.0	 146.0	 146.0	 0.0	 0.0	 1	 -30.0	 30.0;
	1684	 2577	 0.110103	 0.294533	 0.004	 96.0	 96.0	 96.0	 0.0	 0.0	 1	 -30.0	 30.0;
	1755	 63	 0.034014	 0.145629	 0.0018	 198.0	 198.0	 198.0	 0.0	 0.0	 1	 -30.0	 30.0;
	65	 2577	 0.000171	 0.000313	 0.0003	 82782.0	 82782.0	 82782.0	 0.0	 0.0	 1	 -30.0	 30.0;
	738	 64	 0.000672	 0.003477	 0.0365	 254.0	 254.0	 254.0	 0.0	 0.0	 1	 -30.0	 30.0;
	252	 66	 0.138123	 0.332	 0.001	 73.0	 73.0	 73.0	 0.0	 0.0	 1	 -30.0	 30.0;
	1773	 2578	 0.000988	 0.003457	 0.0	 7261.0	 7261.0	 7261.0	 0.0	 0.0	 1	 -30.0	 30.0;
	2145	 66	 0.008395	 0.02321	 0.0	 1058.0	 1058.0	 1058.0	 0.0	 0.0	 1	 -30.0	 30.0;
	1894	 67	 0.000632	 0.004188	 0.0081	 471.0	 471.0	 471.0	 0.0	 0.0	 1	 -30.0	 30.0;
	1894	 2579	 0.000612	 0.004148	 0.0071	 471.0	 471.0	 471.0	 0.0	 0.0	 1	 -30.0	 30.0;
	1362	 69	 0.000672	 0.004405	 0.0081	 541.0	 541.0	 541.0	 0.0	 0.0	 1	 -30.0	 30.0;
	2090	 69	 0.000968	 0.004602	 0.0081	 304.0	 304.0	 304.0	 0.0	 0.0	 1	 -30.0	 30.0;
	1362	 69	 0.000632	 0.004444	 0.0081	 440.0	 440.0	 440.0	 0.0	 0.0	 1	 -30.0	 30.0;
	2095	 70	 0.001975	 0.013215	 0.0243	 541.0	 541.0	 541.0	 0.0	 0.0	 1	 -30.0	 30.0;
	2096	 70	 0.001956	 0.013037	 0.0243	 2348.0	 2348.0	 2348.0	 0.0	 0.0	 1	 -30.0	 30.0;
	1761	 71	 0.002933	 0.010267	 0.0032	 3007.0	 3007.0	 3007.0	 0.0	 0.0	 1	 -30.0	 30.0;
	1911	 71	 0.0028	 0.007511	 0.0022	 4006.0	 4006.0	 4006.0	 0.0	 0.0	 1	 -30.0	 30.0;
	74	 2580	 2e-05	 0.000198	 0.0121	 261.0	 261.0	 261.0	 0.0	 0.0	 1	 -30.0	 30.0;
	74	 72	 2e-05	 0.000198	 0.0142	 261.0	 261.0	 261.0	 0.0	 0.0	 1	 -30.0	 30.0;
	377	 74	 0.000277	 0.000928	 0.2066	 31961.0	 31961.0	 31961.0	 0.0	 0.0	 1	 -30.0	 30.0;
	2653	 74	 0.002037	 0.010904	 0.0187	 352.0	 352.0	 352.0	 0.0	 0.0	 1	 -30.0	 30.0;
	423	 74	 0.000415	 0.002015	 0.1266	 428.0	 428.0	 428.0	 0.0	 0.0	 1	 -30.0	 30.0;
	483	 74	 0.000395	 0.00156	 0.1893	 426.0	 426.0	 426.0	 0.0	 0.0	 1	 -30.0	 30.0;
	791	 74	 4e-05	 0.000178	 0.0152	 169660.0	 169660.0	 169660.0	 0.0	 0.0	 1	 -30.0	 30.0;
	2792	 74	 0.001323	 0.012444	 0.0678	 935.0	 935.0	 935.0	 0.0	 0.0	 1	 -30.0	 30.0;
	1631	 74	 0.000454	 0.002133	 0.2511	 268.0	 268.0	 268.0	 0.0	 0.0	 1	 -30.0	 30.0;
	1855	 74	 0.000119	 0.000691	 0.1002	 387.0	 387.0	 387.0	 0.0	 0.0	 1	 -30.0	 30.0;
	1886	 74	 0.00083	 0.005175	 0.0203	 323.0	 323.0	 323.0	 0.0	 0.0	 1	 -30.0	 30.0;
	377	 74	 0.000277	 0.000928	 0.2086	 31961.0	 31961.0	 31961.0	 0.0	 0.0	 1	 -30.0	 30.0;
	2792	 74	 0.001314	 0.012115	 0.0673	 943.0	 943.0	 943.0	 0.0	 0.0	 1	 -30.0	 30.0;
	2926	 74	 5.9e-05	 0.000217	 0.0496	 323.0	 323.0	 323.0	 0.0	 0.0	 1	 -30.0	 30.0;
	1853	 74	 5.9e-05	 0.000217	 0.0466	 323.0	 323.0	 323.0	 0.0	 0.0	 1	 -30.0	 30.0;
	1640	 75	 0.000854	 0.001563	 0.0007	 16578.0	 16578.0	 16578.0	 0.0	 0.0	 1	 -30.0	 30.0;
	1909	 76	 0.000494	 0.000988	 0.0	 23633.0	 23633.0	 23633.0	 0.0	 0.0	 1	 -30.0	 30.0;
...